//HEAD_DSPH
/*
 <DUALSPHYSICS>  Copyright (c) 2020 by Dr Jose M. Dominguez et al. (see http://dual.sphysics.org/index.php/developers/). 

 EPHYSLAB Environmental Physics Laboratory, Universidade de Vigo, Ourense, Spain.
 School of Mechanical, Aerospace and Civil Engineering, University of Manchester, Manchester, U.K.

 This file is part of DualSPHysics. 

 DualSPHysics is free software: you can redistribute it and/or modify it under the terms of the GNU Lesser General Public License 
 as published by the Free Software Foundation; either version 2.1 of the License, or (at your option) any later version.
 
 DualSPHysics is distributed in the hope that it will be useful, but WITHOUT ANY WARRANTY; without even the implied warranty of
 MERCHANTABILITY or FITNESS FOR A PARTICULAR PURPOSE.  See the GNU Lesser General Public License for more details. 

 You should have received a copy of the GNU Lesser General Public License along with DualSPHysics. If not, see <http://www.gnu.org/licenses/>. 
*/

/// \file JSphGpu_ker.cu \brief Implements functions and CUDA kernels for the Particle Interaction and System Update.

#include "JSphGpu_ker.h"
#include "Functions.h"
#include "FunctionsCuda.h"
#include "JLog2.h"
#include <cfloat>
#include <math_constants.h>
//:#include "JDgKerPrint.h"
//:#include "JDgKerPrint_ker.h"

#pragma warning(disable : 4267) //Cancels "warning C4267: conversion from 'size_t' to 'int', possible loss of data"
#pragma warning(disable : 4244) //Cancels "warning C4244: conversion from 'unsigned __int64' to 'unsigned int', possible loss of data"
#pragma warning(disable : 4503) //Cancels "warning C4503: decorated name length exceeded, name was truncated"
#include <thrust/device_vector.h>
#include <thrust/sort.h>

__constant__ StCteInteraction CTE;
#define CTE_AVAILABLE

namespace cusph{
#include "FunctionsBasic_iker.h"
#include "FunctionsMath_iker.h"
#include "FunSphKernel_iker.h"
#include "FunSphEos_iker.h"
#include "JCellSearch_iker.h"


//==============================================================================
/// Reduction using maximum of float values in shared memory for a warp.
/// Reduccion mediante maximo de valores float en memoria shared para un warp.
//==============================================================================
template <unsigned blockSize> __device__ void KerReduMaxFloatWarp(volatile float* sdat,unsigned tid){
  if(blockSize>=64)sdat[tid]=max(sdat[tid],sdat[tid+32]);
  if(blockSize>=32)sdat[tid]=max(sdat[tid],sdat[tid+16]);
  if(blockSize>=16)sdat[tid]=max(sdat[tid],sdat[tid+8]);
  if(blockSize>=8)sdat[tid]=max(sdat[tid],sdat[tid+4]);
  if(blockSize>=4)sdat[tid]=max(sdat[tid],sdat[tid+2]);
  if(blockSize>=2)sdat[tid]=max(sdat[tid],sdat[tid+1]);
}

//==============================================================================
/// Accumulates the maximum of n values of array dat[], storing the result in 
/// the beginning of res[].(Many positions of res[] are used as blocks, 
/// storing the final result in res[0]).
///
/// Acumula el maximo de n valores del vector dat[], guardando el resultado al 
/// principio de res[] (Se usan tantas posiciones del res[] como bloques, 
/// quedando el resultado final en res[0]).
//==============================================================================
template <unsigned blockSize> __global__ void KerReduMaxFloat(unsigned n,unsigned ini,const float *dat,float *res){
  extern __shared__ float sdat[];
  unsigned tid=threadIdx.x;
  unsigned c=blockIdx.x*blockDim.x + threadIdx.x;
  sdat[tid]=(c<n? dat[c+ini]: -FLT_MAX);
  __syncthreads();
  if(blockSize>=512){ if(tid<256)sdat[tid]=max(sdat[tid],sdat[tid+256]);  __syncthreads(); }
  if(blockSize>=256){ if(tid<128)sdat[tid]=max(sdat[tid],sdat[tid+128]);  __syncthreads(); }
  if(blockSize>=128){ if(tid<64) sdat[tid]=max(sdat[tid],sdat[tid+64]);   __syncthreads(); }
  if(tid<32)KerReduMaxFloatWarp<blockSize>(sdat,tid);
  if(tid==0)res[blockIdx.x]=sdat[0];
}

//==============================================================================
/// Returns the maximum of an array, using resu[] as auxiliar array.
/// Size of resu[] must be >= a (N/SPHBSIZE+1)+(N/(SPHBSIZE*SPHBSIZE)+SPHBSIZE)
///
/// Devuelve el maximo de un vector, usando resu[] como vector auxiliar. El tamanho
/// de resu[] debe ser >= a (N/SPHBSIZE+1)+(N/(SPHBSIZE*SPHBSIZE)+SPHBSIZE)
//==============================================================================
float ReduMaxFloat(unsigned ndata,unsigned inidata,float* data,float* resu){
  float resf=0;
  if(ndata>=1){
    unsigned n=ndata,ini=inidata;
    unsigned smemSize=SPHBSIZE*sizeof(float);
    dim3 sgrid=GetSimpleGridSize(n,SPHBSIZE);
    unsigned n_blocks=sgrid.x*sgrid.y;
    float *dat=data;
    float *resu1=resu,*resu2=resu+n_blocks;
    float *res=resu1;
    while(n>1){
      KerReduMaxFloat<SPHBSIZE><<<sgrid,SPHBSIZE,smemSize>>>(n,ini,dat,res);
      n=n_blocks; ini=0;
      sgrid=GetSimpleGridSize(n,SPHBSIZE);  
      n_blocks=sgrid.x*sgrid.y;
      if(n>1){
        dat=res; res=(dat==resu1? resu2: resu1); 
      }
    }
    if(ndata>1)cudaMemcpy(&resf,res,sizeof(float),cudaMemcpyDeviceToHost);
    else cudaMemcpy(&resf,data,sizeof(float),cudaMemcpyDeviceToHost);
  }
  //else{//-Using Thrust library is slower than ReduMasFloat() with ndata < 5M.
  //  thrust::device_ptr<float> dev_ptr(data);
  //  resf=thrust::reduce(dev_ptr,dev_ptr+ndata,-FLT_MAX,thrust::maximum<float>());
  //}
  return(resf);
}

//==============================================================================
/// Accumulates the sum of n values of array dat[], storing the result in 
/// the beginning of res[].(Many positions of res[] are used as blocks, 
/// storing the final result in res[0]).
///
/// Acumula la suma de n valores del vector dat[].w, guardando el resultado al 
/// principio de res[] (Se usan tantas posiciones del res[] como bloques, 
/// quedando el resultado final en res[0]).
//==============================================================================
template <unsigned blockSize> __global__ void KerReduMaxFloat_w(unsigned n,unsigned ini,const float4 *dat,float *res){
  extern __shared__ float sdat[];
  unsigned tid=threadIdx.x;
  unsigned c=blockIdx.x*blockDim.x + threadIdx.x;
  sdat[tid]=(c<n? dat[c+ini].w: -FLT_MAX);
  __syncthreads();
  if(blockSize>=512){ if(tid<256)sdat[tid]=max(sdat[tid],sdat[tid+256]);  __syncthreads(); }
  if(blockSize>=256){ if(tid<128)sdat[tid]=max(sdat[tid],sdat[tid+128]);  __syncthreads(); }
  if(blockSize>=128){ if(tid<64) sdat[tid]=max(sdat[tid],sdat[tid+64]);   __syncthreads(); }
  if(tid<32)KerReduMaxFloatWarp<blockSize>(sdat,tid);
  if(tid==0)res[blockIdx.x]=sdat[0];
}

//==============================================================================
/// Returns the maximum of an array, using resu[] as auxiliar array.
/// Size of resu[] must be >= a (N/SPHBSIZE+1)+(N/(SPHBSIZE*SPHBSIZE)+SPHBSIZE).
///
/// Devuelve el maximo de la componente w de un vector float4, usando resu[] como 
/// vector auxiliar. El tamanho de resu[] debe ser >= a (N/SPHBSIZE+1)+(N/(SPHBSIZE*SPHBSIZE)+SPHBSIZE).
//==============================================================================
float ReduMaxFloat_w(unsigned ndata,unsigned inidata,float4* data,float* resu){
  unsigned n=ndata,ini=inidata;
  unsigned smemSize=SPHBSIZE*sizeof(float);
  dim3 sgrid=GetSimpleGridSize(n,SPHBSIZE);
  unsigned n_blocks=sgrid.x*sgrid.y;
  float *dat=NULL;
  float *resu1=resu,*resu2=resu+n_blocks;
  float *res=resu1;
  while(n>1){
    if(!dat)KerReduMaxFloat_w<SPHBSIZE><<<sgrid,SPHBSIZE,smemSize>>>(n,ini,data,res);
    else KerReduMaxFloat<SPHBSIZE><<<sgrid,SPHBSIZE,smemSize>>>(n,ini,dat,res);
    n=n_blocks; ini=0;
    sgrid=GetSimpleGridSize(n,SPHBSIZE);  
    n_blocks=sgrid.x*sgrid.y;
    if(n>1){
      dat=res; res=(dat==resu1? resu2: resu1); 
    }
  }
  float resf;
  if(ndata>1)cudaMemcpy(&resf,res,sizeof(float),cudaMemcpyDeviceToHost);
  else{
    float4 resf4;
    cudaMemcpy(&resf4,data,sizeof(float4),cudaMemcpyDeviceToHost);
    resf=resf4.w;
  }
  return(resf);
}

//==============================================================================
/// Stores constants for the GPU interaction.
/// Graba constantes para la interaccion a la GPU.
//==============================================================================
void CteInteractionUp(const StCteInteraction *cte){
  cudaMemcpyToSymbol(CTE,cte,sizeof(StCteInteraction));
}

//------------------------------------------------------------------------------
/// Initialises array with the indicated value.
/// Inicializa array con el valor indicado.
//------------------------------------------------------------------------------
__global__ void KerInitArray(unsigned n,float3 *v,float3 value)
{
  unsigned p=blockIdx.x*blockDim.x + threadIdx.x; //-Number of particle.
  if(p<n)v[p]=value;
}

//==============================================================================
/// Initialises array with the indicated value.
/// Inicializa array con el valor indicado.
//==============================================================================
void InitArray(unsigned n,float3 *v,tfloat3 value){
  if(n){
    dim3 sgrid=GetSimpleGridSize(n,SPHBSIZE);
    KerInitArray <<<sgrid,SPHBSIZE>>> (n,v,Float3(value));
  }
}

//------------------------------------------------------------------------------
/// Sets v[].y to zero.
/// Pone v[].y a cero.
//------------------------------------------------------------------------------
__global__ void KerResety(unsigned n,unsigned ini,float3 *v)
{
  unsigned p=blockIdx.x*blockDim.x + threadIdx.x; //-Number of particle.
  if(p<n)v[p+ini].y=0;
}

//==============================================================================
/// Sets v[].y to zero.
/// Pone v[].y a cero.
//==============================================================================
void Resety(unsigned n,unsigned ini,float3 *v){
  if(n){
    dim3 sgrid=GetSimpleGridSize(n,SPHBSIZE);
    KerResety <<<sgrid,SPHBSIZE>>> (n,ini,v);
  }
}

//------------------------------------------------------------------------------
/// Calculates module^2 of ace.
//------------------------------------------------------------------------------
__global__ void KerComputeAceMod(unsigned n,const float3 *ace,float *acemod)
{
  unsigned p=blockIdx.x*blockDim.x + threadIdx.x; //-Number of particle.
  if(p<n){
    const float3 r=ace[p];
    acemod[p]=r.x*r.x+r.y*r.y+r.z*r.z;
  }
}

//==============================================================================
/// Calculates module^2 of ace.
//==============================================================================
void ComputeAceMod(unsigned n,const float3 *ace,float *acemod){
  if(n){
    dim3 sgrid=GetSimpleGridSize(n,SPHBSIZE);
    KerComputeAceMod <<<sgrid,SPHBSIZE>>> (n,ace,acemod);
  }
}

//------------------------------------------------------------------------------
/// Calculates module^2 of ace, comprobando que la particula sea normal.
/// Uses zero for periodic particles.
//------------------------------------------------------------------------------
__global__ void KerComputeAceMod(unsigned n,const typecode *code,const float3 *ace,float *acemod)
{
  unsigned p=blockIdx.x*blockDim.x + threadIdx.x; //-Number of particle.
  if(p<n){
    const typecode rcod=code[p];
    const float3 r=(CODE_IsNormal(rcod) && !CODE_IsFluidInout(rcod)? ace[p]: make_float3(0,0,0));
    acemod[p]=r.x*r.x+r.y*r.y+r.z*r.z;
  }
}

//==============================================================================
/// Calculates module^2 of ace, comprobando que la particula sea normal.
/// Uses zero for periodic particles.
//==============================================================================
void ComputeAceMod(unsigned n,const typecode *code,const float3 *ace,float *acemod){
  if(n){
    dim3 sgrid=GetSimpleGridSize(n,SPHBSIZE);
    KerComputeAceMod <<<sgrid,SPHBSIZE>>> (n,code,ace,acemod);
  }
}


//##############################################################################
//# Other kernels...
//# Otros kernels...
//##############################################################################
//------------------------------------------------------------------------------
/// Calculates module^2 of vel.
//------------------------------------------------------------------------------
__global__ void KerComputeVelMod(unsigned n,const float4 *vel,float *velmod)
{
  unsigned p=blockIdx.x*blockDim.x + threadIdx.x; //-Number of particle.
  if(p<n){
    const float4 r=vel[p];
    velmod[p]=r.x*r.x+r.y*r.y+r.z*r.z;
  }
}

//==============================================================================
/// Calculates module^2 of vel.
//==============================================================================
void ComputeVelMod(unsigned n,const float4 *vel,float *velmod){
  if(n){
    dim3 sgrid=GetSimpleGridSize(n,SPHBSIZE);
    KerComputeVelMod <<<sgrid,SPHBSIZE>>> (n,vel,velmod);
  }
}


//##############################################################################
//# Kernels para cambiar la posicion.
//# Kernels for changing the position.
//##############################################################################
//------------------------------------------------------------------------------
/// Updates pos, dcell and code from the indicated displacement.
/// The code may be CODE_OUTRHOP because in ComputeStepVerlet / Symplectic this is evaluated
/// and is executed before ComputeStepPos.
/// Checks limits depending on maprealposmin and maprealsize, this is valid 
/// for single-GPU because maprealpos and domrealpos are equal. For multi-gpu it is
/// important to mark particles that leave the domain without leaving the map.
///
/// Actualiza pos, dcell y code a partir del desplazamiento indicado.
/// Code puede ser CODE_OUTRHOP pq en ComputeStepVerlet/Symplectic se evalua esto 
/// y se ejecuta antes que ComputeStepPos.
/// Comprueba los limites en funcion de maprealposmin y maprealsize esto es valido
/// para single-gpu pq domrealpos y maprealpos son iguales. Para multi-gpu seria 
/// necesario marcar las particulas q salgan del dominio sin salir del mapa.
//------------------------------------------------------------------------------
template<bool periactive> __device__ void KerUpdatePos
  (double2 rxy,double rz,double movx,double movy,double movz
  ,bool outrhop,unsigned p,double2 *posxy,double *posz,unsigned *dcell,typecode *code)
{
  //-Checks validity of displacement. | Comprueba validez del desplazamiento.
  const bool outmove=(fmaxf(fabsf(float(movx)),fmaxf(fabsf(float(movy)),fabsf(float(movz))))>CTE.movlimit);
  //-Applies diplacement.
  double3 rpos=make_double3(rxy.x,rxy.y,rz);
  rpos.x+=movx; rpos.y+=movy; rpos.z+=movz;
  if(rpos.y<0 && CTE.symmetry)rpos.y=-rpos.y; //<vs_syymmetry>
  //-Checks limits of real domain. | Comprueba limites del dominio reales.
  double dx=rpos.x-CTE.maprealposminx;
  double dy=rpos.y-CTE.maprealposminy;
  double dz=rpos.z-CTE.maprealposminz;
  bool out=(dx!=dx || dy!=dy || dz!=dz || dx<0 || dy<0 || dz<0 || dx>=CTE.maprealsizex || dy>=CTE.maprealsizey || dz>=CTE.maprealsizez);
  if(periactive && out){
    bool xperi=(CTE.periactive&1),yperi=(CTE.periactive&2),zperi=(CTE.periactive&4);
    if(xperi){
      if(dx<0)                { dx-=CTE.xperincx; dy-=CTE.xperincy; dz-=CTE.xperincz; }
      if(dx>=CTE.maprealsizex){ dx+=CTE.xperincx; dy+=CTE.xperincy; dz+=CTE.xperincz; }
    }
    if(yperi){
      if(dy<0)                { dx-=CTE.yperincx; dy-=CTE.yperincy; dz-=CTE.yperincz; }
      if(dy>=CTE.maprealsizey){ dx+=CTE.yperincx; dy+=CTE.yperincy; dz+=CTE.yperincz; }
    }
    if(zperi){
      if(dz<0)                { dx-=CTE.zperincx; dy-=CTE.zperincy; dz-=CTE.zperincz; }
      if(dz>=CTE.maprealsizez){ dx+=CTE.zperincx; dy+=CTE.zperincy; dz+=CTE.zperincz; }
    }
    bool outx=!xperi && (dx<0 || dx>=CTE.maprealsizex);
    bool outy=!yperi && (dy<0 || dy>=CTE.maprealsizey);
    bool outz=!zperi && (dz<0 || dz>=CTE.maprealsizez);
    out=(outx||outy||outz);
    rpos=make_double3(dx+CTE.maprealposminx,dy+CTE.maprealposminy,dz+CTE.maprealposminz);
  }
  //-Stores updated position.
  posxy[p]=make_double2(rpos.x,rpos.y);
  posz[p]=rpos.z;
  //-Stores cell and check. | Guarda celda y check.
  if(outrhop || outmove || out){//-Particle out. Only brands as excluded normal particles (not periodic). | Particle out. Solo las particulas normales (no periodicas) se pueden marcar como excluidas.
    typecode rcode=code[p];
    if(out)rcode=CODE_SetOutPos(rcode);
    else if(outrhop)rcode=CODE_SetOutRhop(rcode);
    else rcode=CODE_SetOutMove(rcode);
    code[p]=rcode;
    dcell[p]=PC__CodeMapOut;
  }
  else{//-Particle in.
    if(periactive){
      dx=rpos.x-CTE.domposminx;
      dy=rpos.y-CTE.domposminy;
      dz=rpos.z-CTE.domposminz;
    }
    const unsigned cx=unsigned(dx/CTE.scell);
    const unsigned cy=unsigned(dy/CTE.scell);
    const unsigned cz=unsigned(dz/CTE.scell);
    dcell[p]=PC__Cell(CTE.cellcode,cx,cy,cz);
  }
}

//------------------------------------------------------------------------------
/// Returns the corrected position after applying periodic conditions.
/// Devuelve la posicion corregida tras aplicar condiciones periodicas.
//------------------------------------------------------------------------------
__device__ double3 KerUpdatePeriodicPos(double3 ps)
{
  double dx=ps.x-CTE.maprealposminx;
  double dy=ps.y-CTE.maprealposminy;
  double dz=ps.z-CTE.maprealposminz;
  const bool out=(dx!=dx || dy!=dy || dz!=dz || dx<0 || dy<0 || dz<0 || dx>=CTE.maprealsizex || dy>=CTE.maprealsizey || dz>=CTE.maprealsizez);
  //-Adjusts position according to periodic conditions and rechecks domain limits.
  //-Ajusta posicion segun condiciones periodicas y vuelve a comprobar los limites del dominio.
  if(out){
    bool xperi=(CTE.periactive&1),yperi=(CTE.periactive&2),zperi=(CTE.periactive&4);
    if(xperi){
      if(dx<0)                { dx-=CTE.xperincx; dy-=CTE.xperincy; dz-=CTE.xperincz; }
      if(dx>=CTE.maprealsizex){ dx+=CTE.xperincx; dy+=CTE.xperincy; dz+=CTE.xperincz; }
    }
    if(yperi){
      if(dy<0)                { dx-=CTE.yperincx; dy-=CTE.yperincy; dz-=CTE.yperincz; }
      if(dy>=CTE.maprealsizey){ dx+=CTE.yperincx; dy+=CTE.yperincy; dz+=CTE.yperincz; }
    }
    if(zperi){
      if(dz<0)                { dx-=CTE.zperincx; dy-=CTE.zperincy; dz-=CTE.zperincz; }
      if(dz>=CTE.maprealsizez){ dx+=CTE.zperincx; dy+=CTE.zperincy; dz+=CTE.zperincz; }
    }
    ps=make_double3(dx+CTE.maprealposminx,dy+CTE.maprealposminy,dz+CTE.maprealposminz);
  }
  return(ps);
}


//##############################################################################
//# Kernels for calculating forces (Pos-Double).
//# Kernels para calculo de fuerzas (Pos-Double).
//##############################################################################
//------------------------------------------------------------------------------
/// Interaction of a particle with a set of particles. Bound-Fluid/Float
/// Realiza la interaccion de una particula con un conjunto de ellas. Bound-Fluid/Float
//------------------------------------------------------------------------------
template<TpKernel tker,TpFtMode ftmode,bool symm>
  __device__ void KerInteractionForcesBoundBox
  (unsigned p1,const unsigned &pini,const unsigned &pfin
  ,const float *ftomassp
  ,const float4 *poscell,const float4 *velrhop,const typecode *code,const unsigned* idp
  ,float massf,const float4 &pscellp1,const float4 &velrhop1,float &arp1,float &visc)
{
  for(int p2=pini;p2<pfin;p2++){
    const float4 pscellp2=poscell[p2];
    float drx=pscellp1.x-pscellp2.x + CTE.poscellsize*(CEL_GetX(__float_as_int(pscellp1.w))-CEL_GetX(__float_as_int(pscellp2.w)));
    float dry=pscellp1.y-pscellp2.y + CTE.poscellsize*(CEL_GetY(__float_as_int(pscellp1.w))-CEL_GetY(__float_as_int(pscellp2.w)));
    float drz=pscellp1.z-pscellp2.z + CTE.poscellsize*(CEL_GetZ(__float_as_int(pscellp1.w))-CEL_GetZ(__float_as_int(pscellp2.w)));
    if(symm)dry=pscellp1.y+pscellp2.y + CTE.poscellsize*CEL_GetY(__float_as_int(pscellp2.w)); //<vs_syymmetry>
    const float rr2=drx*drx+dry*dry+drz*drz;
    if(rr2<=CTE.kernelsize2 && rr2>=ALMOSTZERO){
      //-Computes kernel.
      const float fac=cufsph::GetKernel_Fac<tker>(rr2);
      const float frx=fac*drx,fry=fac*dry,frz=fac*drz; //-Gradients.

      float4 velrhop2=velrhop[p2];
      if(symm)velrhop2.y=-velrhop2.y; //<vs_syymmetry>
      //-Obtains particle mass p2 if there are floating bodies.
      //-Obtiene masa de particula p2 en caso de existir floatings.
      float ftmassp2;    //-Contains mass of floating body or massf if fluid. | Contiene masa de particula floating o massf si es fluid.
      bool compute=true; //-Deactivated when DEM is used and is float-float or float-bound. | Se desactiva cuando se usa DEM y es float-float o float-bound.
      if(USE_FLOATING){
        const typecode cod=code[p2];
        bool ftp2=CODE_IsFloating(cod);
        ftmassp2=(ftp2? ftomassp[CODE_GetTypeValue(cod)]: massf);
        compute=!(USE_FTEXTERNAL && ftp2); //-Deactivated when DEM or Chrono is used and is bound-float. | Se desactiva cuando se usa DEM o Chrono y es bound-float.
      }

      if(compute){
        //-Density derivative (Continuity equation).
        const float dvx=velrhop1.x-velrhop2.x, dvy=velrhop1.y-velrhop2.y, dvz=velrhop1.z-velrhop2.z;
        arp1+=(USE_FLOATING? ftmassp2: massf)*(dvx*frx+dvy*fry+dvz*frz)*(velrhop1.w/velrhop2.w);

        {//===== Viscosity ===== 
          const float dot=drx*dvx + dry*dvy + drz*dvz;
          const float dot_rr2=dot/(rr2+CTE.eta2);
          visc=max(dot_rr2,visc); 
        }
      }
    }
  }
}

//------------------------------------------------------------------------------
/// Particle interaction. Bound-Fluid/Float
/// Realiza interaccion entre particulas. Bound-Fluid/Float
//------------------------------------------------------------------------------
template<TpKernel tker,TpFtMode ftmode,bool symm> 
  __global__ void KerInteractionForcesBound(unsigned n,unsigned pinit
  ,int scelldiv,int4 nc,int3 cellzero,const int2 *beginendcellfluid,const unsigned *dcell
  ,const float *ftomassp
  ,const float4 *poscell,const float4 *velrhop,const typecode *code,const unsigned *idp
  ,float *viscdt,float *ar)
{
  const unsigned p=blockIdx.x*blockDim.x + threadIdx.x; //-Number of thread.
  if(p<n){
    const unsigned p1=p+pinit;      //-Number of particle.
    float visc=0,arp1=0;

    //-Loads particle p1 data.
    const float4 pscellp1=poscell[p1];
    const float4 velrhop1=velrhop[p1];
    const bool rsymp1=(symm && CEL_GetPartY(__float_as_uint(pscellp1.w))==0); //<vs_syymmetry>
    
    //-Obtains neighborhood search limits.
    int ini1,fin1,ini2,fin2,ini3,fin3;
    cunsearch::InitCte(dcell[p1],scelldiv,nc,cellzero,ini1,fin1,ini2,fin2,ini3,fin3);

    //-Boundary-Fluid interaction.
    for(int c3=ini3;c3<fin3;c3+=nc.w)for(int c2=ini2;c2<fin2;c2+=nc.x){
      unsigned pini,pfin=0;  cunsearch::ParticleRange(c2,c3,ini1,fin1,beginendcellfluid,pini,pfin);
      if(pfin){
                          KerInteractionForcesBoundBox<tker,ftmode,false> (p1,pini,pfin,ftomassp,poscell,velrhop,code,idp,CTE.massf,pscellp1,velrhop1,arp1,visc);
        if(symm && rsymp1)KerInteractionForcesBoundBox<tker,ftmode,true > (p1,pini,pfin,ftomassp,poscell,velrhop,code,idp,CTE.massf,pscellp1,velrhop1,arp1,visc);
      }
    }
    //-Stores results.
    if(arp1 || visc){
      ar[p1]+=arp1;
      if(visc>viscdt[p1])viscdt[p1]=visc;
    }
  }
}

//------------------------------------------------------------------------------
/// Interaction of a particle with a set of particles. (Fluid/Float-Fluid/Float/Bound)
/// Realiza la interaccion de una particula con un conjunto de ellas. (Fluid/Float-Fluid/Float/Bound)
//------------------------------------------------------------------------------
template<TpKernel tker,TpFtMode ftmode,bool lamsps,TpDensity tdensity,bool shift,bool symm>
  __device__ void KerInteractionForcesFluidBox(bool boundp2,unsigned p1
  ,const unsigned &pini,const unsigned &pfin,float visco
  ,const float *ftomassp,const float2 *tauff
  ,const float4 *poscell,const float4 *velrhop,const typecode *code,const unsigned *idp
  ,float massp2,bool ftp1
  ,const float4 &pscellp1,const float4 &velrhop1,float pressp1
  ,const float2 &taup1_xx_xy,const float2 &taup1_xz_yy,const float2 &taup1_yz_zz
  ,float2 &grap1_xx_xy,float2 &grap1_xz_yy,float2 &grap1_yz_zz
  ,float3 &acep1,float &arp1,float &visc,float &deltap1
  ,TpShifting shiftmode,float4 &shiftposfsp1)
{
  for(int p2=pini;p2<pfin;p2++){
    const float4 pscellp2=poscell[p2];
    float drx=pscellp1.x-pscellp2.x + CTE.poscellsize*(CEL_GetX(__float_as_int(pscellp1.w))-CEL_GetX(__float_as_int(pscellp2.w)));
    float dry=pscellp1.y-pscellp2.y + CTE.poscellsize*(CEL_GetY(__float_as_int(pscellp1.w))-CEL_GetY(__float_as_int(pscellp2.w)));
    float drz=pscellp1.z-pscellp2.z + CTE.poscellsize*(CEL_GetZ(__float_as_int(pscellp1.w))-CEL_GetZ(__float_as_int(pscellp2.w)));
    if(symm)dry=pscellp1.y+pscellp2.y + CTE.poscellsize*CEL_GetY(__float_as_int(pscellp2.w)); //<vs_syymmetry>
    const float rr2=drx*drx+dry*dry+drz*drz;
    if(rr2<=CTE.kernelsize2 && rr2>=ALMOSTZERO){
      //-Computes kernel.
      const float fac=cufsph::GetKernel_Fac<tker>(rr2);
      const float frx=fac*drx,fry=fac*dry,frz=fac*drz; //-Gradients.

      //-Obtains mass of particle p2 if any floating bodies exist.
      //-Obtiene masa de particula p2 en caso de existir floatings.
      bool ftp2=false;         //-Indicates if it is floating. | Indica si es floating.
      float ftmassp2;    //-Contains mass of floating body or massf if fluid. | Contiene masa de particula floating o massp2 si es bound o fluid.
      bool compute=true; //-Deactivated when DEM is used and is float-float or float-bound. | Se desactiva cuando se usa DEM y es float-float o float-bound.
      if(USE_FLOATING){
        const typecode cod=code[p2];
        ftp2=CODE_IsFloating(cod);
        ftmassp2=(ftp2? ftomassp[CODE_GetTypeValue(cod)]: massp2);
        #ifdef DELTA_HEAVYFLOATING
          if(ftp2 && tdensity==DDT_DDT && ftmassp2<=(massp2*1.2f))deltap1=FLT_MAX;
        #else
          if(ftp2 && tdensity==DDT_DDT)deltap1=FLT_MAX;
        #endif
        if(ftp2 && shift && shiftmode==SHIFT_NoBound)shiftposfsp1.x=FLT_MAX; //-Cancels shifting with floating bodies. | Con floatings anula shifting.
        compute=!(USE_FTEXTERNAL && ftp1 && (boundp2 || ftp2)); //-Deactivated when DEM or Chrono is used and is float-float or float-bound. | Se desactiva cuando se usa DEM o Chrono y es float-float o float-bound.
      }

      float4 velrhop2=velrhop[p2];
      if(symm)velrhop2.y=-velrhop2.y; //<vs_syymmetry>
      
      //-Velocity derivative (Momentum equation).
      if(compute){
        const float pressp2=cufsph::ComputePressCte(velrhop2.w);
        const float prs=(pressp1+pressp2)/(velrhop1.w*velrhop2.w)
          +(tker==KERNEL_Cubic? cufsph::GetKernelCubic_Tensil(rr2,velrhop1.w,pressp1,velrhop2.w,pressp2): 0);
        const float p_vpm=-prs*(USE_FLOATING? ftmassp2: massp2);
        acep1.x+=p_vpm*frx; acep1.y+=p_vpm*fry; acep1.z+=p_vpm*frz;
      }

      //-Density derivative (Continuity equation).
      const float dvx=velrhop1.x-velrhop2.x, dvy=velrhop1.y-velrhop2.y, dvz=velrhop1.z-velrhop2.z;
      if(compute)arp1+=(USE_FLOATING? ftmassp2: massp2)*(dvx*frx+dvy*fry+dvz*frz)*(velrhop1.w/velrhop2.w);

      const float cbar=CTE.cs0;
      const float dot3=(tdensity!=DDT_None || shift? drx*frx+dry*fry+drz*frz: 0);
      //-Density Diffusion Term (Molteni and Colagrossi 2009).
      if(tdensity==DDT_DDT && deltap1!=FLT_MAX){
        const float rhop1over2=velrhop1.w/velrhop2.w;
        const float visc_densi=CTE.ddtkh*cbar*(rhop1over2-1.f)/(rr2+CTE.eta2);
        const float delta=visc_densi*dot3*(USE_FLOATING? ftmassp2: massp2);
        //deltap1=(boundp2? FLT_MAX: deltap1+delta);
        deltap1=(boundp2 && CTE.tboundary==BC_DBC? FLT_MAX: deltap1+delta);
      }
      //-Density Diffusion Term (Fourtakas et al 2019).
      if((tdensity==DDT_DDT2 || (tdensity==DDT_DDT2Full && !boundp2)) && deltap1!=FLT_MAX && !ftp2){
        const float rh=1.f+CTE.ddtgz*drz;
        const float drhop=CTE.rhopzero*pow(rh,1.f/CTE.gamma)-CTE.rhopzero;  
        const float visc_densi=CTE.ddtkh*cbar*((velrhop2.w-velrhop1.w)-drhop)/(rr2+CTE.eta2);
        const float delta=visc_densi*dot3*massp2/velrhop2.w;
        deltap1=(boundp2? FLT_MAX: deltap1-delta); //-blocks it makes it boil - bloody DBC
      }

      //-Shifting correction.
      if(shift && shiftposfsp1.x!=FLT_MAX){
        const float massrhop=(USE_FLOATING? ftmassp2: massp2)/velrhop2.w;
        const bool noshift=(boundp2 && (shiftmode==SHIFT_NoBound || (shiftmode==SHIFT_NoFixed && CODE_IsFixed(code[p2]))));
        shiftposfsp1.x=(noshift? FLT_MAX: shiftposfsp1.x+massrhop*frx); //-Removes shifting for the boundaries. | Con boundary anula shifting.
        shiftposfsp1.y+=massrhop*fry;
        shiftposfsp1.z+=massrhop*frz;
        shiftposfsp1.w-=massrhop*dot3;
      }

      //===== Viscosity ===== 
      if(compute){
        const float dot=drx*dvx + dry*dvy + drz*dvz;
        const float dot_rr2=dot/(rr2+CTE.eta2);
        visc=max(dot_rr2,visc);  //ViscDt=max(dot/(rr2+Eta2),ViscDt);
        if(!lamsps){//-Artificial viscosity.
          if(dot<0){
            const float amubar=CTE.kernelh*dot_rr2;  //amubar=CTE.kernelh*dot/(rr2+CTE.eta2);
            const float robar=(velrhop1.w+velrhop2.w)*0.5f;
            const float pi_visc=(-visco*cbar*amubar/robar)*(USE_FLOATING? ftmassp2: massp2);
            acep1.x-=pi_visc*frx; acep1.y-=pi_visc*fry; acep1.z-=pi_visc*frz;
          }
        }
        else{//-Laminar+SPS viscosity.
          {//-Laminar contribution.
            const float robar2=(velrhop1.w+velrhop2.w);
            const float temp=4.f*visco/((rr2+CTE.eta2)*robar2);  //-Simplication of temp=2.0f*visco/((rr2+CTE.eta2)*robar); robar=(rhopp1+velrhop2.w)*0.5f;
            const float vtemp=(USE_FLOATING? ftmassp2: massp2)*temp*(drx*frx+dry*fry+drz*frz);  
            acep1.x+=vtemp*dvx; acep1.y+=vtemp*dvy; acep1.z+=vtemp*dvz;
          }
          //-SPS turbulence model.
          float2 taup2_xx_xy=taup1_xx_xy; //-taup1 is always zero when p1 is not fluid. | taup1 siempre es cero cuando p1 no es fluid.
          float2 taup2_xz_yy=taup1_xz_yy;
          float2 taup2_yz_zz=taup1_yz_zz;
          if(!boundp2 && (USE_NOFLOATING || !ftp2)){//-When p2 is fluid.
            float2 taup2=tauff[p2*3];     taup2_xx_xy.x+=taup2.x; taup2_xx_xy.y+=taup2.y;
                   taup2=tauff[p2*3+1];   taup2_xz_yy.x+=taup2.x; taup2_xz_yy.y+=taup2.y;
                   taup2=tauff[p2*3+2];   taup2_yz_zz.x+=taup2.x; taup2_yz_zz.y+=taup2.y;
          }
          acep1.x+=(USE_FLOATING? ftmassp2: massp2)*(taup2_xx_xy.x*frx+taup2_xx_xy.y*fry+taup2_xz_yy.x*frz);
          acep1.y+=(USE_FLOATING? ftmassp2: massp2)*(taup2_xx_xy.y*frx+taup2_xz_yy.y*fry+taup2_yz_zz.x*frz);
          acep1.z+=(USE_FLOATING? ftmassp2: massp2)*(taup2_xz_yy.x*frx+taup2_yz_zz.x*fry+taup2_yz_zz.y*frz);
          //-Velocity gradients.
          if(USE_NOFLOATING || !ftp1){//-When p1 is fluid.
            const float volp2=-(USE_FLOATING? ftmassp2: massp2)/velrhop2.w;
            float dv=dvx*volp2; grap1_xx_xy.x+=dv*frx; grap1_xx_xy.y+=dv*fry; grap1_xz_yy.x+=dv*frz;
                  dv=dvy*volp2; grap1_xx_xy.y+=dv*frx; grap1_xz_yy.y+=dv*fry; grap1_yz_zz.x+=dv*frz;
                  dv=dvz*volp2; grap1_xz_yy.x+=dv*frx; grap1_yz_zz.x+=dv*fry; grap1_yz_zz.y+=dv*frz;
            // to compute tau terms we assume that gradvel.xy=gradvel.dudy+gradvel.dvdx, gradvel.xz=gradvel.dudz+gradvel.dwdx, gradvel.yz=gradvel.dvdz+gradvel.dwdy
            // so only 6 elements are needed instead of 3x3.
          }
        }
      }
    }
  }
}

//------------------------------------------------------------------------------
/// Interaction between particles. Fluid/Float-Fluid/Float or Fluid/Float-Bound.
/// Includes artificial/laminar viscosity and normal/DEM floating bodies.
///
/// Realiza interaccion entre particulas. Fluid/Float-Fluid/Float or Fluid/Float-Bound
/// Incluye visco artificial/laminar y floatings normales/dem.
//------------------------------------------------------------------------------
template<TpKernel tker,TpFtMode ftmode,bool lamsps,TpDensity tdensity,bool shift,bool symm>
  __global__ void KerInteractionForcesFluid(unsigned n,unsigned pinit,float viscob,float viscof
  ,int scelldiv,int4 nc,int3 cellzero,const int2 *begincell,unsigned cellfluid,const unsigned *dcell
  ,const float *ftomassp,const float2 *tauff,float2 *gradvelff
  ,const float4 *poscell,const float4 *velrhop,const typecode *code,const unsigned *idp
  ,float *viscdt,float *ar,float3 *ace,float *delta
  ,TpShifting shiftmode,float4 *shiftposfs)
{
  const unsigned p=blockIdx.x*blockDim.x + threadIdx.x; //-Number of particle.
  if(p<n){
    const unsigned p1=p+pinit;      //-Number of particle.
    float visc=0,arp1=0,deltap1=0;
    float3 acep1=make_float3(0,0,0);

    //-Variables for Shifting.
    float4 shiftposfsp1;
    if(shift)shiftposfsp1=shiftposfs[p1];

    //-Obtains data of particle p1 in case there are floating bodies.
    bool ftp1;       //-Indicates if it is floating. | Indica si es floating.
    if(USE_FLOATING){
      const typecode cod=code[p1];
      ftp1=CODE_IsFloating(cod);
      if(ftp1 && tdensity!=DDT_None)deltap1=FLT_MAX; //-DDT is not applied to floating particles.
      if(ftp1 && shift)shiftposfsp1.x=FLT_MAX; //-Shifting is not calculated for floating bodies. | Para floatings no se calcula shifting.
    }

    //-Obtains basic data of particle p1.
    const float4 pscellp1=poscell[p1];
    const float4 velrhop1=velrhop[p1];
    const float pressp1=cufsph::ComputePressCte(velrhop1.w);
    const bool rsymp1=(symm && CEL_GetPartY(__float_as_uint(pscellp1.w))==0); //<vs_syymmetry>

    //-Variables for Laminar+SPS.
    float2 taup1_xx_xy,taup1_xz_yy,taup1_yz_zz;
    if(lamsps){
      taup1_xx_xy=tauff[p1*3];
      taup1_xz_yy=tauff[p1*3+1];
      taup1_yz_zz=tauff[p1*3+2];
    }
    //-Variables for Laminar+SPS (computation).
    float2 grap1_xx_xy,grap1_xz_yy,grap1_yz_zz;
    if(lamsps){
      grap1_xx_xy=make_float2(0,0);
      grap1_xz_yy=make_float2(0,0);
      grap1_yz_zz=make_float2(0,0);
    }

    //-Obtains neighborhood search limits.
    int ini1,fin1,ini2,fin2,ini3,fin3;
    cunsearch::InitCte(dcell[p1],scelldiv,nc,cellzero,ini1,fin1,ini2,fin2,ini3,fin3);

    //-Interaction with fluids.
    ini3+=cellfluid; fin3+=cellfluid;
    for(int c3=ini3;c3<fin3;c3+=nc.w)for(int c2=ini2;c2<fin2;c2+=nc.x){
      unsigned pini,pfin=0;  cunsearch::ParticleRange(c2,c3,ini1,fin1,begincell,pini,pfin);
      if(pfin){
                          KerInteractionForcesFluidBox<tker,ftmode,lamsps,tdensity,shift,false> (false,p1,pini,pfin,viscof,ftomassp,tauff,poscell,velrhop,code,idp,CTE.massf,ftp1,pscellp1,velrhop1,pressp1,taup1_xx_xy,taup1_xz_yy,taup1_yz_zz,grap1_xx_xy,grap1_xz_yy,grap1_yz_zz,acep1,arp1,visc,deltap1,shiftmode,shiftposfsp1);
        if(symm && rsymp1)KerInteractionForcesFluidBox<tker,ftmode,lamsps,tdensity,shift,true > (false,p1,pini,pfin,viscof,ftomassp,tauff,poscell,velrhop,code,idp,CTE.massf,ftp1,pscellp1,velrhop1,pressp1,taup1_xx_xy,taup1_xz_yy,taup1_yz_zz,grap1_xx_xy,grap1_xz_yy,grap1_yz_zz,acep1,arp1,visc,deltap1,shiftmode,shiftposfsp1); //<vs_syymmetry>
      }
    }
    //-Interaction with boundaries.
    ini3-=cellfluid; fin3-=cellfluid;
    for(int c3=ini3;c3<fin3;c3+=nc.w)for(int c2=ini2;c2<fin2;c2+=nc.x){
      unsigned pini,pfin=0;  cunsearch::ParticleRange(c2,c3,ini1,fin1,begincell,pini,pfin);
      if(pfin){
                        KerInteractionForcesFluidBox<tker,ftmode,lamsps,tdensity,shift,false> (true ,p1,pini,pfin,viscob,ftomassp,tauff,poscell,velrhop,code,idp,CTE.massb,ftp1,pscellp1,velrhop1,pressp1,taup1_xx_xy,taup1_xz_yy,taup1_yz_zz,grap1_xx_xy,grap1_xz_yy,grap1_yz_zz,acep1,arp1,visc,deltap1,shiftmode,shiftposfsp1);
      if(symm && rsymp1)KerInteractionForcesFluidBox<tker,ftmode,lamsps,tdensity,shift,true > (true ,p1,pini,pfin,viscob,ftomassp,tauff,poscell,velrhop,code,idp,CTE.massb,ftp1,pscellp1,velrhop1,pressp1,taup1_xx_xy,taup1_xz_yy,taup1_yz_zz,grap1_xx_xy,grap1_xz_yy,grap1_yz_zz,acep1,arp1,visc,deltap1,shiftmode,shiftposfsp1);
      }
    }

    //-Stores results.
    if(shift||arp1||acep1.x||acep1.y||acep1.z||visc){
      if(tdensity!=DDT_None){
        if(delta){
          const float rdelta=delta[p1];
          delta[p1]=(rdelta==FLT_MAX || deltap1==FLT_MAX? FLT_MAX: rdelta+deltap1);
        }
        else if(deltap1!=FLT_MAX)arp1+=deltap1;
      }
      ar[p1]+=arp1;
      float3 r=ace[p1]; r.x+=acep1.x; r.y+=acep1.y; r.z+=acep1.z; ace[p1]=r;
      if(visc>viscdt[p1])viscdt[p1]=visc;
      if(lamsps){
        float2 rg;
        rg=gradvelff[p1*3  ];  rg=make_float2(rg.x+grap1_xx_xy.x,rg.y+grap1_xx_xy.y);  gradvelff[p1*3  ]=rg;
        rg=gradvelff[p1*3+1];  rg=make_float2(rg.x+grap1_xz_yy.x,rg.y+grap1_xz_yy.y);  gradvelff[p1*3+1]=rg;
        rg=gradvelff[p1*3+2];  rg=make_float2(rg.x+grap1_yz_zz.x,rg.y+grap1_yz_zz.y);  gradvelff[p1*3+2]=rg;
      }
      if(shift)shiftposfs[p1]=shiftposfsp1;
    }
  }
}

#ifndef DISABLE_BSMODES
//==============================================================================
/// Collects kernel information.
//==============================================================================
template<TpKernel tker,TpFtMode ftmode,bool lamsps,TpDensity tdensity,bool shift,bool symm> 
  void Interaction_ForcesT_KerInfo(StKerInfo *kerinfo)
{
 #if CUDART_VERSION >= 6050
  {
    typedef void (*fun_ptr)(unsigned,unsigned,float,float,int,int4,int3,const int2*,unsigned,const unsigned*,const float*,const float2*,float2*,const float4*,const float4*,const typecode*,const unsigned*,float*,float*,float3*,float*,TpShifting,float4*);
    fun_ptr ptr=&KerInteractionForcesFluid<tker,ftmode,lamsps,tdensity,shift,symm>;
    int qblocksize=0,mingridsize=0;
    cudaOccupancyMaxPotentialBlockSize(&mingridsize,&qblocksize,(void*)ptr,0,0);
    struct cudaFuncAttributes attr;
    cudaFuncGetAttributes(&attr,(void*)ptr);
    kerinfo->forcesfluid_bs=qblocksize;
    kerinfo->forcesfluid_rg=attr.numRegs;
    kerinfo->forcesfluid_bsmax=attr.maxThreadsPerBlock;
    //printf(">> KerInteractionForcesFluid  blocksize:%u (%u)\n",qblocksize,0);
  }
  {
    typedef void (*fun_ptr)(unsigned,unsigned,int,int4,int3,const int2*,const unsigned*,const float*,const float4*,const float4*,const typecode*,const unsigned*,float*,float*);
    fun_ptr ptr=&KerInteractionForcesBound<tker,ftmode,symm>;
    int qblocksize=0,mingridsize=0;
    cudaOccupancyMaxPotentialBlockSize(&mingridsize,&qblocksize,(void*)ptr,0,0);
    struct cudaFuncAttributes attr;
    cudaFuncGetAttributes(&attr,(void*)ptr);
    kerinfo->forcesbound_bs=qblocksize;
    kerinfo->forcesbound_rg=attr.numRegs;
    kerinfo->forcesbound_bsmax=attr.maxThreadsPerBlock;
    //printf(">> KerInteractionForcesBound  blocksize:%u (%u)\n",qblocksize,0);
  }
  fcuda::Check_CudaErroorFun("Error collecting kernel information.");
 #endif
}
#endif

//==============================================================================
/// Interaction for the force computation.
/// Interaccion para el calculo de fuerzas.
//==============================================================================
template<TpKernel tker,TpFtMode ftmode,bool lamsps,TpDensity tdensity,bool shift> 
  void Interaction_ForcesGpuT(const StInterParmsg &t)
{
  //-Collects kernel information.
#ifndef DISABLE_BSMODES
  if(t.kerinfo){
    Interaction_ForcesT_KerInfo<tker,ftmode,lamsps,tdensity,shift,false>(t.kerinfo);
    return;
  }
#endif
  const StDivDataGpu &dvd=t.divdatag;
  const int2* beginendcell=dvd.beginendcell;
  //-Interaction Fluid-Fluid & Fluid-Bound.
  if(t.fluidnum){
    dim3 sgridf=GetSimpleGridSize(t.fluidnum,t.bsfluid);
    if(t.symmetry) //<vs_syymmetry_ini>
      KerInteractionForcesFluid<tker,ftmode,lamsps,tdensity,shift,true> <<<sgridf,t.bsfluid,0,t.stm>>> 
      (t.fluidnum,t.fluidini,t.viscob,t.viscof,dvd.scelldiv,dvd.nc,dvd.cellzero,dvd.beginendcell,dvd.cellfluid,t.dcell
      ,t.ftomassp,(const float2*)t.tau,(float2*)t.gradvel,t.poscell,t.velrhop,t.code,t.idp
      ,t.viscdt,t.ar,t.ace,t.delta,t.shiftmode,t.shiftposfs);
    else //<vs_syymmetry_end>
      KerInteractionForcesFluid<tker,ftmode,lamsps,tdensity,shift,false> <<<sgridf,t.bsfluid,0,t.stm>>> 
      (t.fluidnum,t.fluidini,t.viscob,t.viscof,dvd.scelldiv,dvd.nc,dvd.cellzero,dvd.beginendcell,dvd.cellfluid,t.dcell
      ,t.ftomassp,(const float2*)t.tau,(float2*)t.gradvel,t.poscell,t.velrhop,t.code,t.idp
      ,t.viscdt,t.ar,t.ace,t.delta,t.shiftmode,t.shiftposfs);
      //KerInteractionForcesFluid<tker,ftmode,lamsps,tdensity,shift,false> <<<sgridf,t.bsfluid,0,t.stm>>> (t.fluidnum,t.fluidini,t.scelldiv,t.nc,t.cellfluid,t.viscob,t.viscof,t.begincell,Int3(t.cellmin),t.dcell,t.ftomassp,(const float2*)t.tau,(float2*)t.gradvel,t.poscell,t.velrhop,t.code,t.idp,t.viscdt,t.ar,t.ace,t.delta,t.shiftmode,t.shiftposfs);
  }
  //-Interaction Boundary-Fluid.
  if(t.boundnum){
    const int2* beginendcellfluid=dvd.beginendcell+dvd.cellfluid;
    dim3 sgridb=GetSimpleGridSize(t.boundnum,t.bsbound);
    //printf("bsbound:%u\n",bsbound);
    if(t.symmetry) //<vs_syymmetry_ini>
      KerInteractionForcesBound<tker,ftmode,true > <<<sgridb,t.bsbound,0,t.stm>>> 
      (t.boundnum,t.boundini,dvd.scelldiv,dvd.nc,dvd.cellzero,beginendcell+dvd.cellfluid,t.dcell
        ,t.ftomassp,t.poscell,t.velrhop,t.code,t.idp,t.viscdt,t.ar);
    else //<vs_syymmetry_end>
      KerInteractionForcesBound<tker,ftmode,false> <<<sgridb,t.bsbound,0,t.stm>>> 
      (t.boundnum,t.boundini,dvd.scelldiv,dvd.nc,dvd.cellzero,beginendcellfluid,t.dcell
        ,t.ftomassp,t.poscell,t.velrhop,t.code,t.idp,t.viscdt,t.ar);
  }
}

//==============================================================================
//#define FAST_COMPILATION
template<TpKernel tker,TpFtMode ftmode,bool lamsps> void Interaction_Forces_gt2(const StInterParmsg &t){
#ifdef FAST_COMPILATION
  if(t.shiftmode || t.tdensity!=DDT_DDT2Full)throw "Shifting and extra DDT are disabled for FastCompilation...";
  Interaction_ForcesGpuT<tker,ftmode,lamsps,DDT_DDT2Full,false> (t);
#else
  if(t.shiftmode){               const bool shift=true;
    if(t.tdensity==DDT_None)    Interaction_ForcesGpuT<tker,ftmode,lamsps,DDT_None    ,shift> (t);
    if(t.tdensity==DDT_DDT)     Interaction_ForcesGpuT<tker,ftmode,lamsps,DDT_DDT     ,shift> (t);
    if(t.tdensity==DDT_DDT2)    Interaction_ForcesGpuT<tker,ftmode,lamsps,DDT_DDT2    ,shift> (t);
    if(t.tdensity==DDT_DDT2Full)Interaction_ForcesGpuT<tker,ftmode,lamsps,DDT_DDT2Full,shift> (t);
  }
  else{                           const bool shift=false;
    if(t.tdensity==DDT_None)    Interaction_ForcesGpuT<tker,ftmode,lamsps,DDT_None    ,shift> (t);
    if(t.tdensity==DDT_DDT)     Interaction_ForcesGpuT<tker,ftmode,lamsps,DDT_DDT     ,shift> (t);
    if(t.tdensity==DDT_DDT2)    Interaction_ForcesGpuT<tker,ftmode,lamsps,DDT_DDT2    ,shift> (t);
    if(t.tdensity==DDT_DDT2Full)Interaction_ForcesGpuT<tker,ftmode,lamsps,DDT_DDT2Full,shift> (t);
  }
#endif
}
//==============================================================================
template<TpKernel tker,TpFtMode ftmode> void Interaction_Forces_gt1(const StInterParmsg &t){
#ifdef FAST_COMPILATION
  if(t.lamsps)throw "Extra viscosity options are disabled for FastCompilation...";
  Interaction_Forces_gt2<tker,ftmode,false> (t);
#else
  if(t.lamsps)Interaction_Forces_gt2<tker,ftmode,true>  (t);
  else        Interaction_Forces_gt2<tker,ftmode,false> (t);
#endif
}
//==============================================================================
template<TpKernel tker> void Interaction_Forces_gt0(const StInterParmsg &t){
#ifdef FAST_COMPILATION
  if(t.ftmode!=FTMODE_None)throw "Extra FtMode options are disabled for FastCompilation...";
  Interaction_Forces_gt1<tker,FTMODE_None> (t);
#else
  if(t.ftmode==FTMODE_None)    Interaction_Forces_gt1<tker,FTMODE_None> (t);
  else if(t.ftmode==FTMODE_Sph)Interaction_Forces_gt1<tker,FTMODE_Sph>  (t);
  else if(t.ftmode==FTMODE_Ext)Interaction_Forces_gt1<tker,FTMODE_Ext>  (t);
#endif
}
//==============================================================================
void Interaction_Forces(const StInterParmsg &t){
#ifdef FAST_COMPILATION
  if(t.tkernel!=KERNEL_Wendland)throw "Extra kernels are disabled for FastCompilation...";
  Interaction_Forces_gt0<KERNEL_Wendland> (t);
#else
  if(t.tkernel==KERNEL_Wendland)     Interaction_Forces_gt0<KERNEL_Wendland> (t);
 #ifndef DISABLE_KERNELS_EXTRA
  else if(t.tkernel==KERNEL_Cubic)   Interaction_Forces_gt0<KERNEL_Cubic   > (t);
 #endif
#endif
}

//------------------------------------------------------------------------------
/// Returns the corrected position after applying periodic conditions.
/// Devuelve la posicion corregida tras aplicar condiciones periodicas.
//------------------------------------------------------------------------------
__device__ float4 KerComputePosCell(const double3 &ps,const double3 &mapposmin,float poscellsize)
{
  const double dx=ps.x-mapposmin.x;
  const double dy=ps.y-mapposmin.y;
  const double dz=ps.z-mapposmin.z;
  int cx=int(dx/poscellsize);
  int cy=int(dy/poscellsize);
  int cz=int(dz/poscellsize);
  cx=(cx>=0? cx: 0);
  cy=(cy>=0? cy: 0);
  cz=(cz>=0? cz: 0);
  const float px=float(dx-(double(poscellsize)*cx));
  const float py=float(dy-(double(poscellsize)*cy));
  const float pz=float(dz-(double(poscellsize)*cz));
  const float pw=__uint_as_float(CEL_Code(cx,cy,cz));
  return(make_float4(px,py,pz,pw));
}

//------------------------------------------------------------------------------
/// Perform interaction between ghost node of selected bondary and fluid.
//------------------------------------------------------------------------------
template<TpKernel tker,bool sim2d,TpSlipMode tslip> __global__ void KerInteractionMdbcCorrection_Fast
  (unsigned n,unsigned nbound,float determlimit,float mdbcthreshold
  ,double3 mapposmin,float poscellsize,const float4 *poscell
  ,int scelldiv,int4 nc,int3 cellzero,const int2 *beginendcellfluid
  ,const double2 *posxy,const double *posz,const typecode *code,const unsigned *idp
  ,const float3 *boundnormal,const float3 *motionvel,float4 *velrhop)
{
  const unsigned p1=blockIdx.x*blockDim.x + threadIdx.x; //-Number of particle.
  if(p1<n){
    const float3 bnormalp1=boundnormal[p1];
    if(bnormalp1.x!=0 || bnormalp1.y!=0 || bnormalp1.z!=0){
      float rhopfinal=FLT_MAX;
      float3 velrhopfinal=make_float3(0,0,0);
      float sumwab=0;

      //-Calculates ghost node position.
      double3 gposp1=make_double3(posxy[p1].x+bnormalp1.x,posxy[p1].y+bnormalp1.y,posz[p1]+bnormalp1.z);
      gposp1=(CTE.periactive!=0? KerUpdatePeriodicPos(gposp1): gposp1); //-Corrected interface Position.
      const float4 gpscellp1=KerComputePosCell(gposp1,mapposmin,poscellsize);

      //-Initializes variables for calculation.
      float rhopp1=0;
      float3 gradrhopp1=make_float3(0,0,0);
      float3 velp1=make_float3(0,0,0);                              // -Only for velocity
      tmatrix3f a_corr2; if(sim2d) cumath::Tmatrix3fReset(a_corr2); //-Only for 2D.
      tmatrix4f a_corr3; if(!sim2d)cumath::Tmatrix4fReset(a_corr3); //-Only for 3D.
    
      //-Obtains neighborhood search limits.
      int ini1,fin1,ini2,fin2,ini3,fin3;
      cunsearch::InitCte(gposp1.x,gposp1.y,gposp1.z,scelldiv,nc,cellzero,ini1,fin1,ini2,fin2,ini3,fin3);

      //-Boundary-Fluid interaction.
      for(int c3=ini3;c3<fin3;c3+=nc.w)for(int c2=ini2;c2<fin2;c2+=nc.x){
        unsigned pini,pfin=0;  cunsearch::ParticleRange(c2,c3,ini1,fin1,beginendcellfluid,pini,pfin);
        if(pfin)for(unsigned p2=pini;p2<pfin;p2++){
          const float4 pscellp2=poscell[p2];
          float drx=gpscellp1.x-pscellp2.x + CTE.poscellsize*(CEL_GetX(__float_as_int(gpscellp1.w))-CEL_GetX(__float_as_int(pscellp2.w)));
          float dry=gpscellp1.y-pscellp2.y + CTE.poscellsize*(CEL_GetY(__float_as_int(gpscellp1.w))-CEL_GetY(__float_as_int(pscellp2.w)));
          float drz=gpscellp1.z-pscellp2.z + CTE.poscellsize*(CEL_GetZ(__float_as_int(gpscellp1.w))-CEL_GetZ(__float_as_int(pscellp2.w)));
          const float rr2=drx*drx+dry*dry+drz*drz;
          if(rr2<=CTE.kernelsize2 && rr2>=ALMOSTZERO && CODE_IsFluid(code[p2])){//-Only with fluid particles (including inout).
            //-Computes kernel.
            float fac;
            const float wab=cufsph::GetKernel_WabFac<tker>(rr2,fac);
            const float frx=fac*drx,fry=fac*dry,frz=fac*drz; //-Gradients.

            //===== Get mass and volume of particle p2 =====
            const float4 velrhopp2=velrhop[p2];
            float massp2=CTE.massf;
            const float volp2=massp2/velrhopp2.w;

            //===== Density and its gradient =====
            rhopp1+=massp2*wab;
            gradrhopp1.x+=massp2*frx;
            gradrhopp1.y+=massp2*fry;
            gradrhopp1.z+=massp2*frz;

            //===== Kernel values multiplied by volume =====
            const float vwab=wab*volp2;
            sumwab+=vwab;
            const float vfrx=frx*volp2;
            const float vfry=fry*volp2;
            const float vfrz=frz*volp2;

            //===== Velocity =====
            if(tslip!=SLIP_Vel0) {
              velp1.x+=vwab*velrhopp2.x;
              velp1.y+=vwab*velrhopp2.y;
              velp1.z+=vwab*velrhopp2.z;
            }

            //===== Matrix A for correction =====
            if(sim2d){
              a_corr2.a11+=vwab;  a_corr2.a12+=drx*vwab;  a_corr2.a13+=drz*vwab;
              a_corr2.a21+=vfrx;  a_corr2.a22+=drx*vfrx;  a_corr2.a23+=drz*vfrx;
              a_corr2.a31+=vfrz;  a_corr2.a32+=drx*vfrz;  a_corr2.a33+=drz*vfrz;
            }
            else{
              a_corr3.a11+=vwab;  a_corr3.a12+=drx*vwab;  a_corr3.a13+=dry*vwab;  a_corr3.a14+=drz*vwab;
              a_corr3.a21+=vfrx;  a_corr3.a22+=drx*vfrx;  a_corr3.a23+=dry*vfrx;  a_corr3.a24+=drz*vfrx;
              a_corr3.a31+=vfry;  a_corr3.a32+=drx*vfry;  a_corr3.a33+=dry*vfry;  a_corr3.a34+=drz*vfry;
              a_corr3.a41+=vfrz;  a_corr3.a42+=drx*vfrz;  a_corr3.a43+=dry*vfrz;  a_corr3.a44+=drz*vfrz;
            }
          }
        }
      }

      //-Store the results.
      //--------------------
      if(sumwab>=mdbcthreshold){
        const float3 dpos=make_float3(-bnormalp1.x,-bnormalp1.y,-bnormalp1.z); //-Boundary particle position - ghost node position.
        if(sim2d){
          const double determ=cumath::Determinant3x3dbl(a_corr2);
          if(fabs(determ)>=determlimit){//-Use 1e-3f (first_order) or 1e+3f (zeroth_order).
            const tmatrix3f invacorr2=cumath::InverseMatrix3x3dbl(a_corr2,determ);
            //-GHOST NODE DENSITY IS MIRRORED BACK TO THE BOUNDARY PARTICLES.
            const float rhoghost=float(invacorr2.a11*rhopp1 + invacorr2.a12*gradrhopp1.x + invacorr2.a13*gradrhopp1.z);
            const float grx=    -float(invacorr2.a21*rhopp1 + invacorr2.a22*gradrhopp1.x + invacorr2.a23*gradrhopp1.z);
            const float grz=    -float(invacorr2.a31*rhopp1 + invacorr2.a32*gradrhopp1.x + invacorr2.a33*gradrhopp1.z);
            rhopfinal=(rhoghost + grx*dpos.x + grz*dpos.z);
          }
          else if(a_corr2.a11>0){//-Determinant is small but a11 is nonzero, 0th order ANGELO.
            rhopfinal=float(rhopp1/a_corr2.a11);
          }
          //-Ghost node velocity (0th order).
          if(tslip!=SLIP_Vel0){
            velrhopfinal.x=float(velp1.x/a_corr2.a11);
            velrhopfinal.z=float(velp1.z/a_corr2.a11);
            velrhopfinal.y=0;
          }
        }
        else{
          const double determ=cumath::Determinant4x4dbl(a_corr3);
          if(fabs(determ)>=determlimit){
            const tmatrix4f invacorr3=cumath::InverseMatrix4x4dbl(a_corr3,determ);
            //-GHOST NODE DENSITY IS MIRRORED BACK TO THE BOUNDARY PARTICLES.
            const float rhoghost=float(invacorr3.a11*rhopp1 + invacorr3.a12*gradrhopp1.x + invacorr3.a13*gradrhopp1.y + invacorr3.a14*gradrhopp1.z);
            const float grx=    -float(invacorr3.a21*rhopp1 + invacorr3.a22*gradrhopp1.x + invacorr3.a23*gradrhopp1.y + invacorr3.a24*gradrhopp1.z);
            const float gry=    -float(invacorr3.a31*rhopp1 + invacorr3.a32*gradrhopp1.x + invacorr3.a33*gradrhopp1.y + invacorr3.a34*gradrhopp1.z);
            const float grz=    -float(invacorr3.a41*rhopp1 + invacorr3.a42*gradrhopp1.x + invacorr3.a43*gradrhopp1.y + invacorr3.a44*gradrhopp1.z);
            rhopfinal=(rhoghost + grx*dpos.x + gry*dpos.y + grz*dpos.z);
          }
          else if(a_corr3.a11>0){//-Determinant is small but a11 is nonzero, 0th order ANGELO.
            rhopfinal=float(rhopp1/a_corr3.a11);
          }
          //-Ghost node velocity (0th order).
          if(tslip!=SLIP_Vel0){
            velrhopfinal.x=float(velp1.x/a_corr3.a11);
            velrhopfinal.y=float(velp1.y/a_corr3.a11);
            velrhopfinal.z=float(velp1.z/a_corr3.a11);
          }
        }
        //-Store the results.
        rhopfinal=(rhopfinal!=FLT_MAX? rhopfinal: CTE.rhopzero);
        if(tslip==SLIP_Vel0){//-DBC vel=0
          velrhop[p1].w=rhopfinal;
        }
        if(tslip==SLIP_NoSlip){//-No-Slip
          const float3 v=motionvel[p1];
          velrhop[p1]=make_float4(v.x+v.x-velrhopfinal.x,v.y+v.y-velrhopfinal.y,v.z+v.z-velrhopfinal.z,rhopfinal);
        }
        if(tslip==SLIP_FreeSlip){//-No-Penetration and free slip    SHABA
          float3 FSVelFinal; // final free slip boundary velocity
          const float3 v=motionvel[p1];
          float motion=sqrt(v.x*v.x+v.y*v.y+v.z*v.z); // to check if boundary moving
          float norm=sqrt(bnormalp1.x*bnormalp1.x+bnormalp1.y*bnormalp1.y+bnormalp1.z*bnormalp1.z);
          float3 normal; // creating a normailsed boundary normal
          normal.x=fabs(bnormalp1.x)/norm; normal.y=fabs(bnormalp1.y)/norm; normal.z=fabs(bnormalp1.z)/norm;

          // finding the velocity componants normal and tangential to boundary 
          float3 normvel=make_float3(velrhopfinal.x*normal.x,velrhopfinal.y*normal.y,velrhopfinal.z*normal.z); // velocity in direction of normal pointin ginto fluid)
          float3 tangvel=make_float3(velrhopfinal.x-normvel.x,velrhopfinal.y-normvel.y,velrhopfinal.z-normvel.z); // velocity tangential to normal

          if (motion > 0) { // if moving boundary
              float3 normmot=make_float3(v.x*normal.x,v.y*normal.y,v.z*normal.z); // boundary motion in direction normal to boundary 
              FSVelFinal=make_float3(normmot.x+normmot.x-normvel.x,normmot.y+normmot.y-normvel.y,normmot.z+normmot.z-normvel.z);
              // only velocity in normal direction for no-penetration
              // fluid sees zero velocity in the tangetial direction
          }
          else {
              FSVelFinal=make_float3(tangvel.x-normvel.x,tangvel.y-normvel.y,tangvel.z-normvel.z);
              // tangential velocity equal to fluid velocity for free slip
              // normal velocity reversed for no-penetration
          }

          // Save the velocity and density
          velrhop[p1]=make_float4(FSVelFinal.x,FSVelFinal.y,FSVelFinal.z,rhopfinal);
        }
      }
    }
  }
}

//------------------------------------------------------------------------------
/// Perform interaction between ghost node of selected bondary and fluid.
//------------------------------------------------------------------------------
template<TpKernel tker,bool sim2d,TpSlipMode tslip> __global__ void KerInteractionMdbcCorrection_Dbl
  (unsigned n,unsigned nbound,float determlimit,float mdbcthreshold
  ,int scelldiv,int4 nc,int3 cellzero,const int2 *beginendcellfluid
  ,const double2 *posxy,const double *posz,const typecode *code,const unsigned *idp
  ,const float3 *boundnormal,const float3 *motionvel,float4 *velrhop)
{
  const unsigned p1=blockIdx.x*blockDim.x + threadIdx.x; //-Number of particle.
  if(p1<n){
    const float3 bnormalp1=boundnormal[p1];
    if(bnormalp1.x!=0 || bnormalp1.y!=0 || bnormalp1.z!=0){
      float rhopfinal=FLT_MAX;
      float3 velrhopfinal=make_float3(0,0,0);
      float sumwab=0;

      //-Calculates ghost node position.
      double3 gposp1=make_double3(posxy[p1].x+bnormalp1.x,posxy[p1].y+bnormalp1.y,posz[p1]+bnormalp1.z);
      gposp1=(CTE.periactive!=0? KerUpdatePeriodicPos(gposp1): gposp1); //-Corrected interface Position.
      //-Initializes variables for calculation.
      float rhopp1=0;
      float3 gradrhopp1=make_float3(0,0,0);
      float3 velp1=make_float3(0,0,0);                              // -Only for velocity
      tmatrix3d a_corr2; if(sim2d) cumath::Tmatrix3dReset(a_corr2); //-Only for 2D.
      tmatrix4d a_corr3; if(!sim2d)cumath::Tmatrix4dReset(a_corr3); //-Only for 3D.
    
      //-Obtains neighborhood search limits.
      int ini1,fin1,ini2,fin2,ini3,fin3;
      cunsearch::InitCte(gposp1.x,gposp1.y,gposp1.z,scelldiv,nc,cellzero,ini1,fin1,ini2,fin2,ini3,fin3);

      //-Boundary-Fluid interaction.
      for(int c3=ini3;c3<fin3;c3+=nc.w)for(int c2=ini2;c2<fin2;c2+=nc.x){
        unsigned pini,pfin=0;  cunsearch::ParticleRange(c2,c3,ini1,fin1,beginendcellfluid,pini,pfin);
        if(pfin)for(unsigned p2=pini;p2<pfin;p2++){
          const double2 p2xy=posxy[p2];
          const float drx=float(gposp1.x-p2xy.x);
          const float dry=float(gposp1.y-p2xy.y);
          const float drz=float(gposp1.z-posz[p2]);
          const float rr2=drx*drx+dry*dry+drz*drz;
          if(rr2<=CTE.kernelsize2 && rr2>=ALMOSTZERO && CODE_IsFluid(code[p2])){//-Only with fluid particles (including inout).
            //-Computes kernel.
            float fac;
            const float wab=cufsph::GetKernel_WabFac<tker>(rr2,fac);
            const float frx=fac*drx,fry=fac*dry,frz=fac*drz; //-Gradients.

            //===== Get mass and volume of particle p2 =====
            const float4 velrhopp2=velrhop[p2];
            float massp2=CTE.massf;
            const float volp2=massp2/velrhopp2.w;

            //===== Density and its gradient =====
            rhopp1+=massp2*wab;
            gradrhopp1.x+=massp2*frx;
            gradrhopp1.y+=massp2*fry;
            gradrhopp1.z+=massp2*frz;

            //===== Kernel values multiplied by volume =====
            const float vwab=wab*volp2;
            sumwab+=vwab;
            const float vfrx=frx*volp2;
            const float vfry=fry*volp2;
            const float vfrz=frz*volp2;

            //===== Velocity =====
            if(tslip!=SLIP_Vel0) {
              velp1.x+=vwab*velrhopp2.x;
              velp1.y+=vwab*velrhopp2.y;
              velp1.z+=vwab*velrhopp2.z;
            }

            //===== Matrix A for correction =====
            if(sim2d){
              a_corr2.a11+=vwab;  a_corr2.a12+=drx*vwab;  a_corr2.a13+=drz*vwab;
              a_corr2.a21+=vfrx;  a_corr2.a22+=drx*vfrx;  a_corr2.a23+=drz*vfrx;
              a_corr2.a31+=vfrz;  a_corr2.a32+=drx*vfrz;  a_corr2.a33+=drz*vfrz;
            }
            else{
              a_corr3.a11+=vwab;  a_corr3.a12+=drx*vwab;  a_corr3.a13+=dry*vwab;  a_corr3.a14+=drz*vwab;
              a_corr3.a21+=vfrx;  a_corr3.a22+=drx*vfrx;  a_corr3.a23+=dry*vfrx;  a_corr3.a24+=drz*vfrx;
              a_corr3.a31+=vfry;  a_corr3.a32+=drx*vfry;  a_corr3.a33+=dry*vfry;  a_corr3.a34+=drz*vfry;
              a_corr3.a41+=vfrz;  a_corr3.a42+=drx*vfrz;  a_corr3.a43+=dry*vfrz;  a_corr3.a44+=drz*vfrz;
            }
          }
        }
      }

      //-Store the results.
      //--------------------
      if(sumwab>=mdbcthreshold){
        const float3 dpos=make_float3(-bnormalp1.x,-bnormalp1.y,-bnormalp1.z); //-Boundary particle position - ghost node position.
        if(sim2d){
          const double determ=cumath::Determinant3x3(a_corr2);
          if(fabs(determ)>=determlimit){//-Use 1e-3f (first_order) or 1e+3f (zeroth_order).
            const tmatrix3d invacorr2=cumath::InverseMatrix3x3(a_corr2,determ);
            //-GHOST NODE DENSITY IS MIRRORED BACK TO THE BOUNDARY PARTICLES.
            const float rhoghost=float(invacorr2.a11*rhopp1 + invacorr2.a12*gradrhopp1.x + invacorr2.a13*gradrhopp1.z);
            const float grx=    -float(invacorr2.a21*rhopp1 + invacorr2.a22*gradrhopp1.x + invacorr2.a23*gradrhopp1.z);
            const float grz=    -float(invacorr2.a31*rhopp1 + invacorr2.a32*gradrhopp1.x + invacorr2.a33*gradrhopp1.z);
            rhopfinal=(rhoghost + grx*dpos.x + grz*dpos.z);
          }
          else if(a_corr2.a11>0){//-Determinant is small but a11 is nonzero, 0th order ANGELO.
            rhopfinal=float(rhopp1/a_corr2.a11);
          }
          //-Ghost node velocity (0th order).
          if(tslip!=SLIP_Vel0){
            velrhopfinal.x=float(velp1.x/a_corr2.a11);
            velrhopfinal.z=float(velp1.z/a_corr2.a11);
            velrhopfinal.y=0;
          }
        }
        else{
          const double determ=cumath::Determinant4x4(a_corr3);
          if(fabs(determ)>=determlimit){
            const tmatrix4d invacorr3=cumath::InverseMatrix4x4(a_corr3,determ);
            //-GHOST NODE DENSITY IS MIRRORED BACK TO THE BOUNDARY PARTICLES.
            const float rhoghost=float(invacorr3.a11*rhopp1 + invacorr3.a12*gradrhopp1.x + invacorr3.a13*gradrhopp1.y + invacorr3.a14*gradrhopp1.z);
            const float grx=    -float(invacorr3.a21*rhopp1 + invacorr3.a22*gradrhopp1.x + invacorr3.a23*gradrhopp1.y + invacorr3.a24*gradrhopp1.z);
            const float gry=    -float(invacorr3.a31*rhopp1 + invacorr3.a32*gradrhopp1.x + invacorr3.a33*gradrhopp1.y + invacorr3.a34*gradrhopp1.z);
            const float grz=    -float(invacorr3.a41*rhopp1 + invacorr3.a42*gradrhopp1.x + invacorr3.a43*gradrhopp1.y + invacorr3.a44*gradrhopp1.z);
            rhopfinal=(rhoghost + grx*dpos.x + gry*dpos.y + grz*dpos.z);
          }
          else if(a_corr3.a11>0){//-Determinant is small but a11 is nonzero, 0th order ANGELO.
            rhopfinal=float(rhopp1/a_corr3.a11);
          }
          //-Ghost node velocity (0th order).
          if(tslip!=SLIP_Vel0){
            velrhopfinal.x=float(velp1.x/a_corr3.a11);
            velrhopfinal.y=float(velp1.y/a_corr3.a11);
            velrhopfinal.z=float(velp1.z/a_corr3.a11);
          }
        }
        //-Store the results.
        rhopfinal=(rhopfinal!=FLT_MAX? rhopfinal: CTE.rhopzero);
        if(tslip==SLIP_Vel0){//-DBC vel=0
          velrhop[p1].w=rhopfinal;
        }
        if(tslip==SLIP_NoSlip){//-No-Slip
          const float3 v=motionvel[p1];
          velrhop[p1]=make_float4(v.x+v.x-velrhopfinal.x,v.y+v.y-velrhopfinal.y,v.z+v.z-velrhopfinal.z,rhopfinal);
        }
        if(tslip==SLIP_FreeSlip){//-No-Penetration and free slip    SHABA
          float3 FSVelFinal; // final free slip boundary velocity
          const float3 v=motionvel[p1];
          float motion=sqrt(v.x*v.x+v.y*v.y+v.z*v.z); // to check if boundary moving
          float norm=sqrt(bnormalp1.x*bnormalp1.x+bnormalp1.y*bnormalp1.y+bnormalp1.z*bnormalp1.z);
          float3 normal; // creating a normailsed boundary normal
          normal.x=fabs(bnormalp1.x)/norm; normal.y=fabs(bnormalp1.y)/norm; normal.z=fabs(bnormalp1.z)/norm;

          // finding the velocity componants normal and tangential to boundary 
          float3 normvel=make_float3(velrhopfinal.x*normal.x,velrhopfinal.y*normal.y,velrhopfinal.z*normal.z); // velocity in direction of normal pointin ginto fluid)
          float3 tangvel=make_float3(velrhopfinal.x-normvel.x,velrhopfinal.y-normvel.y,velrhopfinal.z-normvel.z); // velocity tangential to normal

          if (motion > 0) { // if moving boundary
              float3 normmot=make_float3(v.x*normal.x,v.y*normal.y,v.z*normal.z); // boundary motion in direction normal to boundary 
              FSVelFinal=make_float3(normmot.x+normmot.x-normvel.x,normmot.y+normmot.y-normvel.y,normmot.z+normmot.z-normvel.z);
              // only velocity in normal direction for no-penetration
              // fluid sees zero velocity in the tangetial direction
          }
          else {
              FSVelFinal=make_float3(tangvel.x-normvel.x,tangvel.y-normvel.y,tangvel.z-normvel.z);
              // tangential velocity equal to fluid velocity for free slip
              // normal velocity reversed for no-penetration
          }

          // Save the velocity and density
          velrhop[p1]=make_float4(FSVelFinal.x,FSVelFinal.y,FSVelFinal.z,rhopfinal);
        }
      }
    }
  }
}


//==============================================================================
/// Calculates extrapolated data on boundary particles from fluid domain for mDBC.
/// Calcula datos extrapolados en el contorno para mDBC.
//==============================================================================
template<TpKernel tker,bool sim2d,TpSlipMode tslip> void Interaction_MdbcCorrectionT2(
  bool fastsingle,unsigned n,unsigned nbound,float mdbcthreshold,const StDivDataGpu &dvd
  ,const tdouble3 &mapposmin,const double2 *posxy,const double *posz,const float4 *poscell
  ,const typecode *code,const unsigned *idp,const float3 *boundnormal,const float3 *motionvel
  ,float4 *velrhop)
{
  const int2* beginendcellfluid=dvd.beginendcell+dvd.cellfluid;
  const float determlimit=1e-3f;
  //-Interaction GhostBoundaryNodes-Fluid.
  if(n){
    const unsigned bsbound=128;
    dim3 sgridb=cusph::GetSimpleGridSize(n,bsbound);
    if(fastsingle){//-mDBC-Fast_v2
      KerInteractionMdbcCorrection_Fast <tker,sim2d,tslip> <<<sgridb,bsbound>>> (n,nbound
        ,determlimit,mdbcthreshold,Double3(mapposmin),dvd.poscellsize,poscell
        ,dvd.scelldiv,dvd.nc,dvd.cellzero,beginendcellfluid
        ,posxy,posz,code,idp,boundnormal,motionvel,velrhop);
    }
    else{//-mDBC_v0
      KerInteractionMdbcCorrection_Dbl <tker,sim2d,tslip> <<<sgridb,bsbound>>> (n,nbound
        ,determlimit,mdbcthreshold,dvd.scelldiv,dvd.nc,dvd.cellzero,beginendcellfluid
        ,posxy,posz,code,idp,boundnormal,motionvel,velrhop);
    }
  }
}
//==============================================================================
template<TpKernel tker> void Interaction_MdbcCorrectionT(bool simulate2d
  ,TpSlipMode slipmode,bool fastsingle,unsigned n,unsigned nbound
  ,float mdbcthreshold,const StDivDataGpu &dvd,const tdouble3 &mapposmin
  ,const double2 *posxy,const double *posz,const float4 *poscell,const typecode *code
  ,const unsigned *idp,const float3 *boundnormal,const float3 *motionvel,float4 *velrhop)
{
  switch(slipmode){
    case SLIP_Vel0:{ const TpSlipMode tslip=SLIP_Vel0;
      if(simulate2d)Interaction_MdbcCorrectionT2 <tker,true ,tslip> (fastsingle,n,nbound,mdbcthreshold,dvd,mapposmin,posxy,posz,poscell,code,idp,boundnormal,motionvel,velrhop);
      else          Interaction_MdbcCorrectionT2 <tker,false,tslip> (fastsingle,n,nbound,mdbcthreshold,dvd,mapposmin,posxy,posz,poscell,code,idp,boundnormal,motionvel,velrhop);
    }break;
#ifndef DISABLE_MDBC_EXTRAMODES
    case SLIP_NoSlip:{ const TpSlipMode tslip=SLIP_NoSlip;
      if(simulate2d)Interaction_MdbcCorrectionT2 <tker,true ,tslip> (fastsingle,n,nbound,mdbcthreshold,dvd,mapposmin,posxy,posz,poscell,code,idp,boundnormal,motionvel,velrhop);
      else          Interaction_MdbcCorrectionT2 <tker,false,tslip> (fastsingle,n,nbound,mdbcthreshold,dvd,mapposmin,posxy,posz,poscell,code,idp,boundnormal,motionvel,velrhop);
    }break;
    case SLIP_FreeSlip:{ const TpSlipMode tslip=SLIP_FreeSlip;
      if(simulate2d)Interaction_MdbcCorrectionT2 <tker,true ,tslip> (fastsingle,n,nbound,mdbcthreshold,dvd,mapposmin,posxy,posz,poscell,code,idp,boundnormal,motionvel,velrhop);
      else          Interaction_MdbcCorrectionT2 <tker,false,tslip> (fastsingle,n,nbound,mdbcthreshold,dvd,mapposmin,posxy,posz,poscell,code,idp,boundnormal,motionvel,velrhop);
    }break;
#endif
    default: throw "SlipMode unknown at Interaction_MdbcCorrectionT().";
  }
}
//==============================================================================
/// Calculates extrapolated data on boundary particles from fluid domain for mDBC.
/// Calcula datos extrapolados en el contorno para mDBC.
//==============================================================================
void Interaction_MdbcCorrection(TpKernel tkernel,bool simulate2d,TpSlipMode slipmode
  ,bool fastsingle,unsigned n,unsigned nbound,float mdbcthreshold
  ,const StDivDataGpu &dvd,const tdouble3 &mapposmin
  ,const double2 *posxy,const double *posz,const float4 *poscell,const typecode *code
  ,const unsigned *idp,const float3 *boundnormal,const float3 *motionvel,float4 *velrhop)
{
  switch(tkernel){
    case KERNEL_Wendland:{ const TpKernel tker=KERNEL_Wendland;
      Interaction_MdbcCorrectionT <tker> (simulate2d,slipmode,fastsingle,n,nbound,mdbcthreshold
        ,dvd,mapposmin,posxy,posz,poscell,code,idp,boundnormal,motionvel,velrhop);
    }break;
#ifndef DISABLE_KERNELS_EXTRA
    case KERNEL_Cubic:{ const TpKernel tker=KERNEL_Cubic;
      Interaction_MdbcCorrectionT <tker> (simulate2d,slipmode,fastsingle,n,nbound,mdbcthreshold
        ,dvd,mapposmin,posxy,posz,poscell,code,idp,boundnormal,motionvel,velrhop);
    }break;
#endif
    default: throw "Kernel unknown at Interaction_MdbcCorrection().";
  }
}


//##############################################################################
//# Kernels for DEM interaction.
//# Kernels para interaccion DEM.
//##############################################################################
//------------------------------------------------------------------------------
/// DEM interaction of a particle with a set of particles. (Float-Float/Bound)
/// Realiza la interaccion DEM de una particula con un conjunto de ellas. (Float-Float/Bound)
//------------------------------------------------------------------------------
__device__ void KerInteractionForcesDemBox 
  (bool boundp2,const unsigned &pini,const unsigned &pfin
  ,const float4 *demdata,float dtforce
  ,const float4 *poscell,const float4 *velrhop,const typecode *code,const unsigned *idp
  ,const float4 &pscellp1,const float4 &velp1,typecode tavp1,float masstotp1
  ,float ftmassp1,float taup1,float kfricp1,float restitup1
  ,float3 &acep1,float &demdtp1)
{
  for(int p2=pini;p2<pfin;p2++){
    const typecode codep2=code[p2];
    if(CODE_IsNotFluid(codep2) && tavp1!=CODE_GetTypeAndValue(codep2)){
      const float4 pscellp2=poscell[p2];
      const float drx=pscellp1.x-pscellp2.x + CTE.poscellsize*(CEL_GetX(__float_as_int(pscellp1.w))-CEL_GetX(__float_as_int(pscellp2.w)));
      const float dry=pscellp1.y-pscellp2.y + CTE.poscellsize*(CEL_GetY(__float_as_int(pscellp1.w))-CEL_GetY(__float_as_int(pscellp2.w)));
      const float drz=pscellp1.z-pscellp2.z + CTE.poscellsize*(CEL_GetZ(__float_as_int(pscellp1.w))-CEL_GetZ(__float_as_int(pscellp2.w)));
      const float rr2=drx*drx+dry*dry+drz*drz;
      const float rad=sqrt(rr2);

      //-Computes maximum value of demdt.
      float4 demdatap2=demdata[CODE_GetTypeAndValue(codep2)];
      const float nu_mass=(boundp2? masstotp1/2: masstotp1*demdatap2.x/(masstotp1+demdatap2.x)); //-With boundary takes the actual mass of floating 1. | Con boundary toma la propia masa del floating 1.
      const float kn=4/(3*(taup1+demdatap2.y))*sqrt(CTE.dp/4); //-Generalized rigidity - Lemieux 2008.
      const float dvx=velp1.x-velrhop[p2].x, dvy=velp1.y-velrhop[p2].y, dvz=velp1.z-velrhop[p2].z; //vji
      const float nx=drx/rad, ny=dry/rad, nz=drz/rad; //-normal_ji             
      const float vn=dvx*nx+dvy*ny+dvz*nz; //-vji.nji    
      const float demvisc=0.2f/(3.21f*(pow(nu_mass/kn,0.4f)*pow(fabs(vn),-0.2f))/40.f);
      if(demdtp1<demvisc)demdtp1=demvisc;

      const float over_lap=1.0f*CTE.dp-rad; //-(ri+rj)-|dij|
      if(over_lap>0.0f){ //-Contact.
        //-Normal.
        const float eij=(restitup1+demdatap2.w)/2;
        const float gn=-(2.0f*log(eij)*sqrt(nu_mass*kn))/(sqrt(float(PI)+log(eij)*log(eij))); //-Generalized damping - Cummins 2010.
        //const float gn=0.08f*sqrt(nu_mass*sqrt(CTE.dp/2)/((taup1+demdatap2.y)/2)); //-generalized damping - Lemieux 2008.
        const float rep=kn*pow(over_lap,1.5f);
        const float fn=rep-gn*pow(over_lap,0.25f)*vn;
        float acef=fn/ftmassp1; //-Divides by the mass of particle to obtain the acceleration.
        acep1.x+=(acef*nx); acep1.y+=(acef*ny); acep1.z+=(acef*nz); //-Force is applied in the normal between the particles.
        //-Tangencial.
        const float dvxt=dvx-vn*nx, dvyt=dvy-vn*ny, dvzt=dvz-vn*nz; //Vji_t
        const float vt=sqrt(dvxt*dvxt + dvyt*dvyt + dvzt*dvzt);
        const float tx=(vt!=0? dvxt/vt: 0), ty=(vt!=0? dvyt/vt: 0), tz=(vt!=0? dvzt/vt: 0); //-Tang vel unit vector.
        const float ft_elast=2*(kn*dtforce-gn)*vt/7; //-Elastic frictional string -->  ft_elast=2*(kn*fdispl-gn*vt)/7; fdispl=dtforce*vt;
        const float kfric_ij=(kfricp1+demdatap2.z)/2;
        float ft=kfric_ij*fn*tanh(8*vt);  //-Coulomb.
        ft=(ft<ft_elast? ft: ft_elast);   //-Not above yield criteria, visco-elastic model.
        acef=ft/ftmassp1; //-Divides by the mass of particle to obtain the acceleration.
        acep1.x+=(acef*tx); acep1.y+=(acef*ty); acep1.z+=(acef*tz);
      }
    }
  }
}

//------------------------------------------------------------------------------
/// Interaction between particles. Fluid/Float-Fluid/Float or Fluid/Float-Bound.
/// Includes artificial/laminar viscosity and normal/DEM floating bodies.
///
/// Realiza interaccion entre particulas. Fluid/Float-Fluid/Float or Fluid/Float-Bound
/// Incluye visco artificial/laminar y floatings normales/dem.
//------------------------------------------------------------------------------
__global__ void KerInteractionForcesDem(unsigned nfloat
  ,int scelldiv,int4 nc,int3 cellzero,const int2 *begincell,unsigned cellfluid,const unsigned *dcell
  ,const unsigned *ftridp,const float4 *demdata,const float *ftomassp,float dtforce
  ,const float4 *poscell,const float4 *velrhop,const typecode *code,const unsigned *idp
  ,float *viscdt,float3 *ace)
{
  const unsigned p=blockIdx.x*blockDim.x + threadIdx.x; //-Number of particle.
  if(p<nfloat){
    const unsigned p1=ftridp[p]; //-Number of particle.
    if(p1!=UINT_MAX){
      float demdtp1=0;
      float3 acep1=make_float3(0,0,0);

      //-Obtains basic data of particle p1.
      const float4 pscellp1=poscell[p1];
      const float4 velp1=velrhop[p1];
      const typecode cod=code[p1];
      const typecode tavp1=CODE_GetTypeAndValue(cod);
      const float4 rdata=demdata[tavp1];
      const float masstotp1=rdata.x;
      const float taup1=rdata.y;
      const float kfricp1=rdata.z;
      const float restitup1=rdata.w;
      const float ftmassp1=ftomassp[CODE_GetTypeValue(cod)];

      //-Obtains neighborhood search limits.
      int ini1,fin1,ini2,fin2,ini3,fin3;
      cunsearch::InitCte(dcell[p1],scelldiv,nc,cellzero,ini1,fin1,ini2,fin2,ini3,fin3);

      //-Interaction with boundaries.
      for(int c3=ini3;c3<fin3;c3+=nc.w)for(int c2=ini2;c2<fin2;c2+=nc.x){
        unsigned pini,pfin=0;  cunsearch::ParticleRange(c2,c3,ini1,fin1,begincell,pini,pfin);
        if(pfin)KerInteractionForcesDemBox (true ,pini,pfin,demdata,dtforce,poscell,velrhop,code,idp,pscellp1,velp1,tavp1,masstotp1,ftmassp1,taup1,kfricp1,restitup1,acep1,demdtp1);
      }

      //-Interaction with fluids.
      ini3+=cellfluid; fin3+=cellfluid;
      for(int c3=ini3;c3<fin3;c3+=nc.w)for(int c2=ini2;c2<fin2;c2+=nc.x){
        unsigned pini,pfin=0;  cunsearch::ParticleRange(c2,c3,ini1,fin1,begincell,pini,pfin);
        if(pfin)KerInteractionForcesDemBox (false,pini,pfin,demdata,dtforce,poscell,velrhop,code,idp,pscellp1,velp1,tavp1,masstotp1,ftmassp1,taup1,kfricp1,restitup1,acep1,demdtp1);
      }

      //-Stores results.
      if(acep1.x || acep1.y || acep1.z || demdtp1){
        float3 r=ace[p1]; r.x+=acep1.x; r.y+=acep1.y; r.z+=acep1.z; ace[p1]=r;
        if(viscdt[p1]<demdtp1)viscdt[p1]=demdtp1;
      }
    }
  }
}

#ifndef DISABLE_BSMODES
//==============================================================================
/// Collects kernel information.
//==============================================================================
void Interaction_ForcesDemT_KerInfo(StKerInfo *kerinfo)
{
#if CUDART_VERSION >= 6050
  {
    typedef void (*fun_ptr)(unsigned,int,int4,int3,const int2*,unsigned,const unsigned*,const unsigned*,const float4*,const float*,float,const float4*,const float4*,const typecode*,const unsigned*,float*,float3*);
    fun_ptr ptr=&KerInteractionForcesDem;
    int qblocksize=0,mingridsize=0;
    cudaOccupancyMaxPotentialBlockSize(&mingridsize,&qblocksize,(void*)ptr,0,0);
    struct cudaFuncAttributes attr;
    cudaFuncGetAttributes(&attr,(void*)ptr);
    kerinfo->forcesdem_bs=qblocksize;
    kerinfo->forcesdem_rg=attr.numRegs;
    kerinfo->forcesdem_bsmax=attr.maxThreadsPerBlock;
    //printf(">> KerInteractionForcesDem  blocksize:%u (%u)\n",qblocksize,0);
  }
  fcuda::Check_CudaErroorFun("Error collecting kernel information.");
#endif
}
#endif

//==============================================================================
/// Interaction for the force computation.
/// Interaccion para el calculo de fuerzas.
//==============================================================================
void Interaction_ForcesDem(unsigned bsize,unsigned nfloat
  ,const StDivDataGpu &dvd,const unsigned *dcell
  ,const unsigned *ftridp,const float4 *demdata,const float *ftomassp,float dtforce
  ,const float4 *poscell,const float4 *velrhop
  ,const typecode *code,const unsigned *idp,float *viscdt,float3 *ace,StKerInfo *kerinfo)
{
  const int2* beginendcell=dvd.beginendcell;
  //-Collects kernel information.
#ifndef DISABLE_BSMODES
  if(kerinfo){
    Interaction_ForcesDemT_KerInfo(kerinfo);
    return;
  }
#endif
  //-Interaction Fluid-Fluid & Fluid-Bound.
  if(nfloat){
    dim3 sgrid=GetSimpleGridSize(nfloat,bsize);
    KerInteractionForcesDem <<<sgrid,bsize>>> (nfloat
      ,dvd.scelldiv,dvd.nc,dvd.cellzero,beginendcell,dvd.cellfluid,dcell
      ,ftridp,demdata,ftomassp,dtforce,poscell,velrhop,code,idp,viscdt,ace);
  }
}


//##############################################################################
//# Kernels for Laminar+SPS.
//##############################################################################
//------------------------------------------------------------------------------
/// Computes sub-particle stress tensor (Tau) for SPS turbulence model.
//------------------------------------------------------------------------------
__global__ void KerComputeSpsTau(unsigned n,unsigned pini,float smag,float blin
  ,const float4 *velrhop,const float2 *gradvelff,float2 *tauff)
{
  unsigned p=blockIdx.x*blockDim.x + threadIdx.x; 
  if(p<n){
    const unsigned p1=p+pini;
    float2 rr=gradvelff[p1*3];   const float grad_xx=rr.x,grad_xy=rr.y;
           rr=gradvelff[p1*3+1]; const float grad_xz=rr.x,grad_yy=rr.y;
           rr=gradvelff[p1*3+2]; const float grad_yz=rr.x,grad_zz=rr.y;
    const float pow1=grad_xx*grad_xx + grad_yy*grad_yy + grad_zz*grad_zz;
    const float prr= grad_xy*grad_xy + grad_xz*grad_xz + grad_yz*grad_yz + pow1+pow1;
    const float visc_sps=smag*sqrt(prr);
    const float div_u=grad_xx+grad_yy+grad_zz;
    const float sps_k=(2.0f/3.0f)*visc_sps*div_u;
    const float sps_blin=blin*prr;
    const float sumsps=-(sps_k+sps_blin);
    const float twovisc_sps=(visc_sps+visc_sps);
    float one_rho2=1.0f/velrhop[p1].w;
    //-Computes new values of tau[].
    const float tau_xx=one_rho2*(twovisc_sps*grad_xx +sumsps);
    const float tau_xy=one_rho2*(visc_sps   *grad_xy);
    tauff[p1*3]=make_float2(tau_xx,tau_xy);
    const float tau_xz=one_rho2*(visc_sps   *grad_xz);
    const float tau_yy=one_rho2*(twovisc_sps*grad_yy +sumsps);
    tauff[p1*3+1]=make_float2(tau_xz,tau_yy);
    const float tau_yz=one_rho2*(visc_sps   *grad_yz);
[...]
//------------------------------------------------------------------------------
/// Marks current periodics to be ignored.
/// Marca las periodicas actuales como ignorar.
//------------------------------------------------------------------------------
__global__ void KerPeriodicIgnore(unsigned n,typecode *code)
{
  const unsigned p=blockIdx.x*blockDim.x + threadIdx.x; //-Number of particle.
  if(p<n){
    //-Checks code of particles.
    //-Comprueba codigo de particula.
    const typecode rcode=code[p];
    if(CODE_IsPeriodic(rcode))code[p]=CODE_SetOutIgnore(rcode);
  }
}

//==============================================================================
/// Marks current periodics to be ignored.
/// Marca las periodicas actuales como ignorar.
//==============================================================================
void PeriodicIgnore(unsigned n,typecode *code){
  if(n){
    dim3 sgrid=GetSimpleGridSize(n,SPHBSIZE);
    KerPeriodicIgnore <<<sgrid,SPHBSIZE>>> (n,code);
  }
}

//------------------------------------------------------------------------------
/// Create list of new periodic particles to be duplicated and 
/// marks old periodics to be ignored.
///
/// Crea lista de nuevas particulas periodicas a duplicar y con delper activado
/// marca las periodicas viejas para ignorar.
//------------------------------------------------------------------------------
__global__ void KerPeriodicMakeList(unsigned n,unsigned pini,unsigned nmax
  ,double3 mapposmin,double3 mapposmax,double3 perinc
  ,const double2 *posxy,const double *posz,const typecode *code,unsigned *listp)
{
  extern __shared__ unsigned slist[];
  if(!threadIdx.x)slist[0]=0;
  __syncthreads();
  const unsigned p=blockIdx.x*blockDim.x + threadIdx.x; //-Number of particle.
  if(p<n){
    const unsigned p2=p+pini;
    //-Inteacts with normal or periodic particles.
    //-Se queda con particulas normales o periodicas.
    if(CODE_GetSpecialValue(code[p2])<=CODE_PERIODIC){
      //-Obtains particle position.
      const double2 rxy=posxy[p2];
      const double rx=rxy.x,ry=rxy.y;
      const double rz=posz[p2];
      double rx2=rx+perinc.x,ry2=ry+perinc.y,rz2=rz+perinc.z;
      if(mapposmin.x<=rx2 && mapposmin.y<=ry2 && mapposmin.z<=rz2 && rx2<mapposmax.x && ry2<mapposmax.y && rz2<mapposmax.z){
        unsigned cp=atomicAdd(slist,1);  slist[cp+1]=p2;
      }
      rx2=rx-perinc.x; ry2=ry-perinc.y; rz2=rz-perinc.z;
      if(mapposmin.x<=rx2 && mapposmin.y<=ry2 && mapposmin.z<=rz2 && rx2<mapposmax.x && ry2<mapposmax.y && rz2<mapposmax.z){
        unsigned cp=atomicAdd(slist,1);  slist[cp+1]=(p2|0x80000000);
      }
    }
  }
  __syncthreads();
  const unsigned ns=slist[0];
  __syncthreads();
  if(!threadIdx.x && ns)slist[0]=atomicAdd((listp+nmax),ns);
  __syncthreads();
  if(threadIdx.x<ns){
    unsigned cp=slist[0]+threadIdx.x;
    if(cp<nmax)listp[cp]=slist[threadIdx.x+1];
  }
  if(blockDim.x+threadIdx.x<ns){ //-There may be twice as many periodics per thread. | Puede haber el doble de periodicas que threads.
    unsigned cp=blockDim.x+slist[0]+threadIdx.x;
    if(cp<nmax)listp[cp]=slist[blockDim.x+threadIdx.x+1];
  }
}

//==============================================================================
/// Create list of new periodic particles to be duplicated.
/// With stable activated reorders perioc list.
///
/// Crea lista de nuevas particulas periodicas a duplicar.
/// Con stable activado reordena lista de periodicas.
//==============================================================================
unsigned PeriodicMakeList(unsigned n,unsigned pini,bool stable,unsigned nmax
  ,tdouble3 mapposmin,tdouble3 mapposmax,tdouble3 perinc
  ,const double2 *posxy,const double *posz,const typecode *code,unsigned *listp)
{
  unsigned count=0;
  if(n){
    //-lspg size list initialized to zero.
    //-Inicializa tamanho de lista lspg a cero.
    cudaMemset(listp+nmax,0,sizeof(unsigned));
    dim3 sgrid=GetSimpleGridSize(n,SPHBSIZE);
    const unsigned smem=(SPHBSIZE*2+1)*sizeof(unsigned); //-Each particle can leave two new periodic over the counter position. | De cada particula pueden salir 2 nuevas periodicas mas la posicion del contador.
    KerPeriodicMakeList <<<sgrid,SPHBSIZE,smem>>> (n,pini,nmax,Double3(mapposmin),Double3(mapposmax),Double3(perinc),posxy,posz,code,listp);
    cudaMemcpy(&count,listp+nmax,sizeof(unsigned),cudaMemcpyDeviceToHost);
    //-Reorders list if it is valid and stable has been activated.
    //-Reordena lista si es valida y stable esta activado.
    if(stable && count && count<=nmax){
      thrust::device_ptr<unsigned> dev_list(listp);
      thrust::sort(dev_list,dev_list+count);
    }
  }
  return(count);
}

//------------------------------------------------------------------------------
/// Doubles the position of the indicated particle using a displacement.
/// Duplicate particles are considered valid and are always within
/// the domain.
/// This kernel applies to single-GPU and multi-GPU because the calculations are made
/// from domposmin.
/// It controls the cell coordinates not exceed the maximum.
///
/// Duplica la posicion de la particula indicada aplicandole un desplazamiento.
/// Las particulas duplicadas se considera que siempre son validas y estan dentro
/// del dominio.
/// Este kernel vale para single-gpu y multi-gpu porque los calculos se hacen 
/// a partir de domposmin.
/// Se controla que las coordendas de celda no sobrepasen el maximo.
//------------------------------------------------------------------------------
__device__ void KerPeriodicDuplicatePos(unsigned pnew,unsigned pcopy
  ,bool inverse,double dx,double dy,double dz,uint3 cellmax
  ,double2 *posxy,double *posz,unsigned *dcell)
{
  //-Obtains position of the particle to be duplicated.
  //-Obtiene pos de particula a duplicar.
  double2 rxy=posxy[pcopy];
  double rz=posz[pcopy];
  //-Applies displacement.
  rxy.x+=(inverse? -dx: dx);
  rxy.y+=(inverse? -dy: dy);
  rz+=(inverse? -dz: dz);
  //-Computes cell coordinates within the domain.
  //-Calcula coordendas de celda dentro de dominio.
  unsigned cx=unsigned((rxy.x-CTE.domposminx)/CTE.scell);
  unsigned cy=unsigned((rxy.y-CTE.domposminy)/CTE.scell);
  unsigned cz=unsigned((rz-CTE.domposminz)/CTE.scell);
  //-Adjust cell coordinates if they exceed the maximum.
  //-Ajusta las coordendas de celda si sobrepasan el maximo.
  cx=(cx<=cellmax.x? cx: cellmax.x);
  cy=(cy<=cellmax.y? cy: cellmax.y);
  cz=(cz<=cellmax.z? cz: cellmax.z);
  //-Stores position and cell of the new particles.
  //-Graba posicion y celda de nuevas particulas.
  posxy[pnew]=rxy;
  posz[pnew]=rz;
  dcell[pnew]=PC__Cell(CTE.cellcode,cx,cy,cz);
}

//------------------------------------------------------------------------------
/// Creates periodic particles from a list of particles to duplicate.
/// It is assumed that all particles are valid.
/// This kernel applies to single-GPU and multi-GPU because it uses domposmin.
///
/// Crea particulas periodicas a partir de una lista con las particulas a duplicar.
/// Se presupone que todas las particulas son validas.
/// Este kernel vale para single-gpu y multi-gpu porque usa domposmin. 
//------------------------------------------------------------------------------
__global__ void KerPeriodicDuplicateVerlet(unsigned n,unsigned pini,uint3 cellmax,double3 perinc
  ,const unsigned *listp,unsigned *idp,typecode *code,unsigned *dcell
  ,double2 *posxy,double *posz,float4 *velrhop,tsymatrix3f *spstau,float4 *velrhopm1)
{
  const unsigned p=blockIdx.x*blockDim.x + threadIdx.x; //-Number of particle.
  if(p<n){
    const unsigned pnew=p+pini;
    const unsigned rp=listp[p];
    const unsigned pcopy=(rp&0x7FFFFFFF);
    //-Adjusts cell position of the new particles.
    //-Ajusta posicion y celda de nueva particula.
    KerPeriodicDuplicatePos(pnew,pcopy,(rp>=0x80000000),perinc.x,perinc.y,perinc.z,cellmax,posxy,posz,dcell);
    //-Copies the remaining data.
    //-Copia el resto de datos.
    idp[pnew]=idp[pcopy];
    code[pnew]=CODE_SetPeriodic(code[pcopy]);
    velrhop[pnew]=velrhop[pcopy];
    velrhopm1[pnew]=velrhopm1[pcopy];
    if(spstau)spstau[pnew]=spstau[pcopy];
  }
}

//==============================================================================
/// Creates periodic particles from a list of particles to duplicate.
/// Crea particulas periodicas a partir de una lista con las particulas a duplicar.
//==============================================================================
void PeriodicDuplicateVerlet(unsigned n,unsigned pini,tuint3 domcells,tdouble3 perinc
  ,const unsigned *listp,unsigned *idp,typecode *code,unsigned *dcell
  ,double2 *posxy,double *posz,float4 *velrhop,tsymatrix3f *spstau,float4 *velrhopm1)
{
  if(n){
    uint3 cellmax=make_uint3(domcells.x-1,domcells.y-1,domcells.z-1);
    dim3 sgrid=GetSimpleGridSize(n,SPHBSIZE);
    KerPeriodicDuplicateVerlet <<<sgrid,SPHBSIZE>>> (n,pini,cellmax,Double3(perinc),listp,idp,code,dcell,posxy,posz,velrhop,spstau,velrhopm1);
  }
}

//------------------------------------------------------------------------------
/// Creates periodic particles from a list of particles to duplicate.
/// It is assumed that all particles are valid.
/// This kernel applies to single-GPU and multi-GPU because it uses domposmin.
///
/// Crea particulas periodicas a partir de una lista con las particulas a duplicar.
/// Se presupone que todas las particulas son validas.
/// Este kernel vale para single-gpu y multi-gpu porque usa domposmin. 
//------------------------------------------------------------------------------
template<bool varspre> __global__ void KerPeriodicDuplicateSymplectic(unsigned n,unsigned pini
  ,uint3 cellmax,double3 perinc,const unsigned *listp,unsigned *idp,typecode *code,unsigned *dcell
  ,double2 *posxy,double *posz,float4 *velrhop,tsymatrix3f *spstau,double2 *posxypre,double *poszpre,float4 *velrhoppre)
{
  const unsigned p=blockIdx.x*blockDim.x + threadIdx.x; //-Number of particle.
  if(p<n){
    const unsigned pnew=p+pini;
    const unsigned rp=listp[p];
    const unsigned pcopy=(rp&0x7FFFFFFF);
    //-Adjusts cell position of the new particles.
    //-Ajusta posicion y celda de nueva particula.
    KerPeriodicDuplicatePos(pnew,pcopy,(rp>=0x80000000),perinc.x,perinc.y,perinc.z,cellmax,posxy,posz,dcell);
    //-Copies the remaining data.
    //-Copia el resto de datos.
    idp[pnew]=idp[pcopy];
    code[pnew]=CODE_SetPeriodic(code[pcopy]);
    velrhop[pnew]=velrhop[pcopy];
    if(varspre){
      posxypre[pnew]=posxypre[pcopy];
      poszpre[pnew]=poszpre[pcopy];
      velrhoppre[pnew]=velrhoppre[pcopy];
    }
    if(spstau)spstau[pnew]=spstau[pcopy];
  }
}

//==============================================================================
/// Creates periodic particles from a list of particles to duplicate.
/// Crea particulas periodicas a partir de una lista con las particulas a duplicar.
//==============================================================================
void PeriodicDuplicateSymplectic(unsigned n,unsigned pini
  ,tuint3 domcells,tdouble3 perinc,const unsigned *listp,unsigned *idp,typecode *code,unsigned *dcell
  ,double2 *posxy,double *posz,float4 *velrhop,tsymatrix3f *spstau,double2 *posxypre,double *poszpre,float4 *velrhoppre)
{
  if(n){
    uint3 cellmax=make_uint3(domcells.x-1,domcells.y-1,domcells.z-1);
    dim3 sgrid=GetSimpleGridSize(n,SPHBSIZE);
    if(posxypre!=NULL)KerPeriodicDuplicateSymplectic<true>  <<<sgrid,SPHBSIZE>>> (n,pini,cellmax,Double3(perinc),listp,idp,code,dcell,posxy,posz,velrhop,spstau,posxypre,poszpre,velrhoppre);
    else              KerPeriodicDuplicateSymplectic<false> <<<sgrid,SPHBSIZE>>> (n,pini,cellmax,Double3(perinc),listp,idp,code,dcell,posxy,posz,velrhop,spstau,posxypre,poszpre,velrhoppre);
  }
}

//------------------------------------------------------------------------------
/// Creates periodic particles from a list of particles to duplicate.
/// It is assumed that all particles are valid.
/// This kernel applies to single-GPU and multi-GPU because it uses domposmin.
///
/// Crea particulas periodicas a partir de una lista con las particulas a duplicar.
/// Se presupone que todas las particulas son validas.
/// Este kernel vale para single-gpu y multi-gpu porque usa domposmin. 
//------------------------------------------------------------------------------
__global__ void KerPeriodicDuplicateNormals(unsigned n,unsigned pini,const unsigned *listp,float3 *normals,float3 *motionvel)
{
  const unsigned p=blockIdx.x*blockDim.x + threadIdx.x; //-Number of particle.
  if(p<n){
    const unsigned pnew=p+pini;
    const unsigned rp=listp[p];
    const unsigned pcopy=(rp&0x7FFFFFFF);
    normals[pnew]=normals[pcopy];
    if(motionvel)motionvel[pnew]=motionvel[pcopy];
  }
}

//==============================================================================
/// Creates periodic particles from a list of particles to duplicate.
/// Crea particulas periodicas a partir de una lista con las particulas a duplicar.
//==============================================================================
void PeriodicDuplicateNormals(unsigned n,unsigned pini,const unsigned *listp,float3 *normals,float3 *motionvel)
{
  if(n){
    dim3 sgrid=GetSimpleGridSize(n,SPHBSIZE);
    KerPeriodicDuplicateNormals <<<sgrid,SPHBSIZE>>> (n,pini,listp,normals,motionvel);
  }
}


//##############################################################################
//# Kernels for Damping.
//##############################################################################
//------------------------------------------------------------------------------
/// Returns TRUE when code==NULL or particle is normal and fluid.
//------------------------------------------------------------------------------
__device__ bool KerIsNormalFluid(const typecode *code,unsigned p){
  if(code){//-Descarta particulas floating o periodicas.
    const typecode cod=code[p];
    return(CODE_IsNormal(cod) && CODE_IsFluid(cod));
  }
  return(true);
}
//------------------------------------------------------------------------------
/// Solves point on the plane.
/// Resuelve punto en el plano.
//------------------------------------------------------------------------------
__device__ double KerPointPlane(const double4 &pla,double px,double py,double pz)
{
  return(pla.x*px+pla.y*py+pla.z*pz+pla.w);
}
//------------------------------------------------------------------------------
/// Solves point on the plane.
/// Resuelve punto en el plano.
//------------------------------------------------------------------------------
__device__ double KerPointPlane(const double4 &pla,const double3 &pt)
{
  return(pla.x*pt.x+pla.y*pt.y+pla.z*pt.z+pla.w);
}

//------------------------------------------------------------------------------
/// Applies Damping.
/// Aplica Damping.
//------------------------------------------------------------------------------
__global__ void KerComputeDamping(unsigned n,unsigned pini
  ,double dt,double4 plane,float dist,float over,float3 factorxyz,float redumax
  ,const double2 *posxy,const double *posz,const typecode *code
  ,float4 *velrhop)
{
  unsigned p=blockIdx.x*blockDim.x + threadIdx.x; //-Number of particle.
  if(p<n){
    const unsigned p1=p+pini;
    const bool ok=KerIsNormalFluid(code,p1);//-Ignore floating and periodic particles. | Descarta particulas floating o periodicas.
    if(ok){
      const double2 rposxy=posxy[p1];
      const double rposz=posz[p1];
      double vdis=KerPointPlane(plane,rposxy.x,rposxy.y,rposz);  //fgeo::PlanePoint(plane,ps);
      if(0<vdis && vdis<=dist+over){
        const double fdis=(vdis>=dist? 1.: vdis/dist);
        const double redudt=dt*(fdis*fdis)*redumax;
        double redudtx=(1.-redudt*factorxyz.x);
        double redudty=(1.-redudt*factorxyz.y);
        double redudtz=(1.-redudt*factorxyz.z);
        redudtx=(redudtx<0? 0.: redudtx);
        redudty=(redudty<0? 0.: redudty);
        redudtz=(redudtz<0? 0.: redudtz);
        float4 rvel=velrhop[p1];
        rvel.x=float(redudtx*rvel.x); 
        rvel.y=float(redudty*rvel.y); 
        rvel.z=float(redudtz*rvel.z); 
        velrhop[p1]=rvel;
      }
    }
  }
}
//==============================================================================
/// Applies Damping.
/// Aplica Damping.
//==============================================================================
void ComputeDamping(double dt,tdouble4 plane,float dist,float over,tfloat3 factorxyz,float redumax
  ,unsigned n,unsigned pini,const double2 *posxy,const double *posz,const typecode *code
  ,float4 *velrhop)
{
  if(n){
    dim3 sgridf=GetSimpleGridSize(n,SPHBSIZE);
    KerComputeDamping <<<sgridf,SPHBSIZE>>> (n,pini,dt,Double4(plane),dist,over,Float3(factorxyz),redumax
      ,posxy,posz,code,velrhop);
  }
}

//------------------------------------------------------------------------------
/// Applies Damping to limited domain.
/// Aplica Damping limitado a un dominio.
//------------------------------------------------------------------------------
__global__ void KerComputeDampingPla(unsigned n,unsigned pini
  ,double dt,double4 plane,float dist,float over,float3 factorxyz,float redumax
  ,double zmin,double zmax,double4 pla0,double4 pla1,double4 pla2,double4 pla3
  ,const double2 *posxy,const double *posz,const typecode *code
  ,float4 *velrhop)
{
  unsigned p=blockIdx.x*blockDim.x + threadIdx.x; //-Number of particle.
  if(p<n){
    const unsigned p1=p+pini;
    const bool ok=KerIsNormalFluid(code,p1);//-Ignore floating and periodic particles. | Descarta particulas floating o periodicas.
    if(ok){
      const double2 rposxy=posxy[p1];
      const double rposz=posz[p1];
      const double3 ps=make_double3(rposxy.x,rposxy.y,rposz);
      double vdis=KerPointPlane(plane,ps);  //fgeo::PlanePoint(plane,ps);
      if(0<vdis && vdis<=dist+over){
        if(ps.z>=zmin && ps.z<=zmax && KerPointPlane(pla0,ps)<=0 && KerPointPlane(pla1,ps)<=0 && KerPointPlane(pla2,ps)<=0 && KerPointPlane(pla3,ps)<=0){
          const double fdis=(vdis>=dist? 1.: vdis/dist);
          const double redudt=dt*(fdis*fdis)*redumax;
          double redudtx=(1.-redudt*factorxyz.x);
          double redudty=(1.-redudt*factorxyz.y);
          double redudtz=(1.-redudt*factorxyz.z);
          redudtx=(redudtx<0? 0.: redudtx);
          redudty=(redudty<0? 0.: redudty);
          redudtz=(redudtz<0? 0.: redudtz);
          float4 rvel=velrhop[p1];
          rvel.x=float(redudtx*rvel.x); 
          rvel.y=float(redudty*rvel.y); 
          rvel.z=float(redudtz*rvel.z); 
          velrhop[p1]=rvel;
        }
      }
    }
  }
}
//==============================================================================
/// Applies Damping to limited domain.
/// Aplica Damping limitado a un dominio.
//==============================================================================
void ComputeDampingPla(double dt,tdouble4 plane,float dist,float over,tfloat3 factorxyz,float redumax
  ,double zmin,double zmax,tdouble4 pla0,tdouble4 pla1,tdouble4 pla2,tdouble4 pla3
  ,unsigned n,unsigned pini,const double2 *posxy,const double *posz,const typecode *code
  ,float4 *velrhop)
{
  if(n){
    dim3 sgridf=GetSimpleGridSize(n,SPHBSIZE);
    KerComputeDampingPla <<<sgridf,SPHBSIZE>>> (n,pini,dt,Double4(plane),dist,over,Float3(factorxyz),redumax
      ,zmin,zmax,Double4(pla0),Double4(pla1),Double4(pla2),Double4(pla3)
      ,posxy,posz,code,velrhop);
  }
}


}


//##############################################################################
//# Kernels for InOut (JSphInOut) and BoundCorr (JSphBoundCorr).
//# Kernels para InOut (JSphInOut) y BoundCorr (JSphBoundCorr).
//##############################################################################
#include "JSphGpu_InOut_iker.cu"

//<vs_non-Newtonian>
//##############################################################################
//# Kernels for NN (JSphGp_NN).
//##############################################################################
#include "JSphGpu_NN_ker.cu"
//<vs_non-Newtonian>
