

 <FLOATINGINFO>  Copyright (c) 2020 by Dr Jose M. Dominguez
 All rights reserved.

 DualSPHysics is an international collaboration between University of Vigo 
 (Spain) and University of Manchester (UK). 

 Redistribution and use in source and binary forms, with or without
 modification, are permitted provided that the following conditions
 are met:
 * Redistributions of source code must retain the above copyright
   notice, this list of conditions and the following disclaimer.
 * Redistributions in binary form must reproduce the above copyright
   notice, this list of conditions and the following disclaimer in the
   documentation and/or other materials provided with the distribution.
 * Neither the name of the DualSPHysics nor the names of its contributors
   may be used to endorse or promote products derived from this software
   without specific prior written permission.

 THIS SOFTWARE IS PROVIDED BY THE COPYRIGHT HOLDERS AND CONTRIBUTORS "AS IS"
 AND ANY EXPRESS OR IMPLIED WARRANTIES, INCLUDING, BUT NOT LIMITED TO, THE
 IMPLIED WARRANTIES OF MERCHANTABILITY AND FITNESS FOR A PARTICULAR PURPOSE
 ARE DISCLAIMED. IN NO EVENT SHALL THE COPYRIGHT OWNER BE LIABLE FOR ANY
 DIRECT, INDIRECT, INCIDENTAL, SPECIAL, EXEMPLARY, OR CONSEQUENTIAL DAMAGES
 (INCLUDING, BUT NOT LIMITED TO, PROCUREMENT OF SUBSTITUTE GOODS OR SERVICES;
 LOSS OF USE, DATA, OR PROFITS; OR BUSINESS INTERRUPTION) HOWEVER CAUSED AND
 ON ANY THEORY OF LIABILITY, WHETHER IN CONTRACT, STRICT LIABILITY, OR TORT
 (INCLUDING NEGLIGENCE OR OTHERWISE) ARISING IN ANY WAY OUT OF THE USE OF
 THIS SOFTWARE, EVEN IF ADVISED OF THE POSSIBILITY OF SUCH DAMAGE. 


FloatingInfo v5.0.122 (09-07-2020)
===================================
LoadDsphConfig> .../bin/windows/DsphConfig.xml
Information about parameters of execution:

  FloatingInfo <options>

  Basic options:
    -h             Shows information about parameters
    -ver           Shows version information
    -opt <file>    Loads configuration from a file

  Define input data:
    -dirin <dir>     Directory with particles data
    -first:<int>     Indicates the first file to be computed
    -last:<int>      Indicates the last file to be computed
    -files:<values>  Indicates the number of files to be processed

  Define output files:
    -savedata <file>    Generates CSV file with data of floating
    -savemotion:<0/1>   Includes motion data (1 by default)
    -onlymk:<values>    Indicates the mk of selected floatings

    -createdirs:<0/1>   Creates full path for output files
                        (value by default is read from DsphConfig.xml or 1)
    -csvsep:<0/1>       Separator character in CSV files (0=semicolon, 1=coma)
                        (value by default is read from DsphConfig.xml or 0)

  Examples:
    FloatingInfo -savedata results
    FloatingInfo -dirin . -onlymk:61-65 -savemotion:0

