

 <GENCASE4>  Copyright (C) 2017 by Jose M. Dominguez
 All rights reserved.

 DualSPHysics is an international collaboration between University of Vigo 
 (Spain) and University of Manchester (UK). 

 Redistribution and use in source and binary forms, with or without
 modification, are permitted provided that the following conditions
 are met:
 * Redistributions of source code must retain the above copyright
   notice, this list of conditions and the following disclaimer.
 * Redistributions in binary form must reproduce the above copyright
   notice, this list of conditions and the following disclaimer in the
   documentation and/or other materials provided with the distribution.
 * Neither the name of the DualSPHysics nor the names of its contributors
   may be used to endorse or promote products derived from this software
   without specific prior written permission.

 THIS SOFTWARE IS PROVIDED BY THE COPYRIGHT HOLDERS AND CONTRIBUTORS "AS IS"
 AND ANY EXPRESS OR IMPLIED WARRANTIES, INCLUDING, BUT NOT LIMITED TO, THE
 IMPLIED WARRANTIES OF MERCHANTABILITY AND FITNESS FOR A PARTICULAR PURPOSE
 ARE DISCLAIMED. IN NO EVENT SHALL THE COPYRIGHT OWNER BE LIABLE FOR ANY
 DIRECT, INDIRECT, INCIDENTAL, SPECIAL, EXEMPLARY, OR CONSEQUENTIAL DAMAGES
 (INCLUDING, BUT NOT LIMITED TO, PROCUREMENT OF SUBSTITUTE GOODS OR SERVICES;
 LOSS OF USE, DATA, OR PROFITS; OR BUSINESS INTERRUPTION) HOWEVER CAUSED AND
 ON ANY THEORY OF LIABILITY, WHETHER IN CONTRACT, STRICT LIABILITY, OR TORT
 (INCLUDING NEGLIGENCE OR OTHERWISE) ARISING IN ANY WAY OUT OF THE USE OF
 THIS SOFTWARE, EVEN IF ADVISED OF THE POSSIBILITY OF SUCH DAMAGE. 


GenCase4 v4.0.062 (22-03-2018) 
================================
Execution parameters information:

  GenCase4 config_in config_out [options]

  Options:
    -h               Shows information about the different parameters
    -ver             Shows version information
    -template        Generates the example file 'CaseTemplate.xml'
    -dp:<float>      Defines the distance between particles

    -ompthreads:<int>  Indicates the number of threads by host for
                   parallel execution, it takes the number of cores
                   of the device by default (or uses zero value)

    -save:<values>  Indicates the format of output files
       +/-all:        To choose or reject all options
       +/-vtkcells:   VTK with simplified cells of the initial configuration
       +/-vtkall:     VTK with all particles of the initial configuration
       +/-vtkbound:   VTK with boundary particles of the initial configuration
       +/-vtkfluid:   VTK with fluid particles of the initial configuration
       (Preselected formats: bi,vtkcells)

    -debug:<int>         Debug level (-1:Off, 0:Explicit, n:Debug level)

  Examples:
    GenCase4 citydef city
    GenCase4 case case -dp:0.01

