DualSPHysics4    v4.2.039    23-03-2018
BoundaryVTK4     v4.0.031    22-03-2018
ComputeForces4   v4.0.029    22-03-2018
FloatingInfo4    v4.0.016    22-03-2018
GenCase4         v4.0.062    22-03-2018
GenCase4 MkWord  v4.0.062    22-03-2018
IsoSurface       v4.0.025    22-03-2018
MeasureBoxes4    v4.0.019    22-03-2018
MeasureTool4     v4.0.039    22-03-2018
PartVtk4         v4.0.037    22-03-2018
PartVTKOut4      v4.0.022    22-03-2018
