DualSPHysics4    v4.2.036    14-03-2018
BoundaryVTK4     v4.0.028    06-12-2017
ComputeForces4   v4.0.027    06-12-2017
FloatingInfo4    v4.0.014    06-12-2017
GenCase4         v4.0.061    14-03-2018
GenCase4 MkWord  v4.0.061    14-03-2018
IsoSurface       v4.0.023    06-12-2017
MeasureBoxes4    v4.0.017    06-12-2017
MeasureTool4     v4.0.037    06-12-2017
PartVtk4         v4.0.035    06-12-2017
PartVtkOut4      v4.0.020    06-12-2017
