The GitHub repository includes only some examples to minimize
the space required by binary files. The rest of the examples 
can be found in the full DualSPHysics package available 
at https://dual.sphysics.org/downloads/
