//HEAD_DSPH
/*
 <DUALSPHYSICS>  Copyright (c) 2023 by Dr Jose M. Dominguez et al. (see http://dual.sphysics.org/index.php/developers/). 

 EPHYSLAB Environmental Physics Laboratory, Universidade de Vigo, Ourense, Spain.
 School of Mechanical, Aerospace and Civil Engineering, University of Manchester, Manchester, U.K.

 This file is part of DualSPHysics. 

 DualSPHysics is free software: you can redistribute it and/or modify it under the terms of the GNU Lesser General Public License 
 as published by the Free Software Foundation; either version 2.1 of the License, or (at your option) any later version.
 
 DualSPHysics is distributed in the hope that it will be useful, but WITHOUT ANY WARRANTY; without even the implied warranty of
 MERCHANTABILITY or FITNESS FOR A PARTICULAR PURPOSE.  See the GNU Lesser General Public License for more details. 

 You should have received a copy of the GNU Lesser General Public License along with DualSPHysics. If not, see <http://www.gnu.org/licenses/>. 
*/

/// \file JSphGpu_ker.cu \brief Implements functions and CUDA kernels for the Particle Interaction and System Update.

#include "JSphGpu_ker.h"
#include "Functions.h"
#include "FunctionsCuda.h"
#include "JLog2.h"
#include <cfloat>
#include <math_constants.h>
//:#include "JDgKerPrint.h"
//:#include "JDgKerPrint_ker.h"

#pragma warning(disable : 4267) //Cancels "warning C4267: conversion from 'size_t' to 'int', possible loss of data"
#pragma warning(disable : 4244) //Cancels "warning C4244: conversion from 'unsigned __int64' to 'unsigned int', possible loss of data"
#pragma warning(disable : 4503) //Cancels "warning C4503: decorated name length exceeded, name was truncated"
#include <thrust/device_vector.h>
#include <thrust/sort.h>

__constant__ StCteInteraction CTE;
#define CTE_AVAILABLE

namespace cusph{
#include "FunctionsBasic_iker.h"
#include "FunctionsMath_iker.h"
#include "FunctionsGeo3d_iker.h"
#include "FunSphKernel_iker.h"
#include "FunSphEos_iker.h"
#include "JCellSearch_iker.h"


//==============================================================================
/// Reduction using maximum of float values in shared memory for a warp.
/// Reduccion mediante maximo de valores float en memoria shared para un warp.
//==============================================================================
template <unsigned blockSize> __device__ void KerReduMaxFloatWarp(
  volatile float* sdat,unsigned tid)
{
  if(blockSize>=64)sdat[tid]=max(sdat[tid],sdat[tid+32]);
  if(blockSize>=32)sdat[tid]=max(sdat[tid],sdat[tid+16]);
  if(blockSize>=16)sdat[tid]=max(sdat[tid],sdat[tid+8]);
  if(blockSize>=8)sdat[tid]=max(sdat[tid],sdat[tid+4]);
  if(blockSize>=4)sdat[tid]=max(sdat[tid],sdat[tid+2]);
  if(blockSize>=2)sdat[tid]=max(sdat[tid],sdat[tid+1]);
}

//==============================================================================
/// Accumulates the maximum of n values of array dat[], storing the result in 
/// the beginning of res[].(Many positions of res[] are used as blocks, 
/// storing the final result in res[0]).
///
/// Acumula el maximo de n valores del vector dat[], guardando el resultado al 
/// principio de res[] (Se usan tantas posiciones del res[] como bloques, 
/// quedando el resultado final en res[0]).
//==============================================================================
template <unsigned blockSize> __global__ void KerReduMaxFloat(unsigned n
  ,unsigned ini,const float* dat,float* res)
{
  extern __shared__ float sdat[];
  unsigned tid=threadIdx.x;
  unsigned c=blockIdx.x*blockDim.x + threadIdx.x;
  sdat[tid]=(c<n? dat[c+ini]: -FLT_MAX);
  __syncthreads();
  if(blockSize>=512){ if(tid<256)sdat[tid]=max(sdat[tid],sdat[tid+256]);  __syncthreads(); }
  if(blockSize>=256){ if(tid<128)sdat[tid]=max(sdat[tid],sdat[tid+128]);  __syncthreads(); }
  if(blockSize>=128){ if(tid<64) sdat[tid]=max(sdat[tid],sdat[tid+64]);   __syncthreads(); }
  if(tid<32)KerReduMaxFloatWarp<blockSize>(sdat,tid);
  if(tid==0)res[blockIdx.x]=sdat[0];
}

//==============================================================================
/// Returns the maximum of an array, using resu[] as auxiliar array.
/// Size of resu[] must be >= a (N/SPHBSIZE+1)+(N/(SPHBSIZE*SPHBSIZE)+SPHBSIZE)
///
/// Devuelve el maximo de un vector, usando resu[] como vector auxiliar. El tamanho
/// de resu[] debe ser >= a (N/SPHBSIZE+1)+(N/(SPHBSIZE*SPHBSIZE)+SPHBSIZE)
//==============================================================================
float ReduMaxFloat(unsigned ndata,unsigned inidata,float* data,float* resu){
  float resf=0;
  if(ndata>=1){
    unsigned n=ndata,ini=inidata;
    unsigned smemSize=SPHBSIZE*sizeof(float);
    dim3 sgrid=GetSimpleGridSize(n,SPHBSIZE);
    unsigned n_blocks=sgrid.x*sgrid.y;
    float* dat=data;
    float* resu1=resu;
    float* resu2=resu+n_blocks;
    float* res=resu1;
    while(n>1){
      KerReduMaxFloat<SPHBSIZE><<<sgrid,SPHBSIZE,smemSize>>>(n,ini,dat,res);
      n=n_blocks; ini=0;
      sgrid=GetSimpleGridSize(n,SPHBSIZE);  
      n_blocks=sgrid.x*sgrid.y;
      if(n>1){
        dat=res; res=(dat==resu1? resu2: resu1); 
      }
    }
    if(ndata>1)cudaMemcpy(&resf,res,sizeof(float),cudaMemcpyDeviceToHost);
    else cudaMemcpy(&resf,data,sizeof(float),cudaMemcpyDeviceToHost);
  }
  //else{//-Using Thrust library is slower than ReduMasFloat() with ndata < 5M.
  //  thrust::device_ptr<float> dev_ptr(data);
  //  resf=thrust::reduce(dev_ptr,dev_ptr+ndata,-FLT_MAX,thrust::maximum<float>());
  //}
  return(resf);
}

//==============================================================================
/// Accumulates the sum of n values of array dat[], storing the result in 
/// the beginning of res[].(Many positions of res[] are used as blocks, 
/// storing the final result in res[0]).
///
/// Acumula la suma de n valores del vector dat[].w, guardando el resultado al 
/// principio de res[] (Se usan tantas posiciones del res[] como bloques, 
/// quedando el resultado final en res[0]).
//==============================================================================
template <unsigned blockSize> __global__ void KerReduMaxFloat_w(unsigned n
  ,unsigned ini,const float4* dat,float* res)
{
  extern __shared__ float sdat[];
  unsigned tid=threadIdx.x;
  unsigned c=blockIdx.x*blockDim.x + threadIdx.x;
  sdat[tid]=(c<n? dat[c+ini].w: -FLT_MAX);
  __syncthreads();
  if(blockSize>=512){ if(tid<256)sdat[tid]=max(sdat[tid],sdat[tid+256]);  __syncthreads(); }
  if(blockSize>=256){ if(tid<128)sdat[tid]=max(sdat[tid],sdat[tid+128]);  __syncthreads(); }
  if(blockSize>=128){ if(tid<64) sdat[tid]=max(sdat[tid],sdat[tid+64]);   __syncthreads(); }
  if(tid<32)KerReduMaxFloatWarp<blockSize>(sdat,tid);
  if(tid==0)res[blockIdx.x]=sdat[0];
}

//==============================================================================
/// Returns the maximum of an array, using resu[] as auxiliar array.
/// Size of resu[] must be >= a (N/SPHBSIZE+1)+(N/(SPHBSIZE*SPHBSIZE)+SPHBSIZE).
///
/// Devuelve el maximo de la componente w de un vector float4, usando resu[] como 
/// vector auxiliar. El tamanho de resu[] debe ser >= a (N/SPHBSIZE+1)+(N/(SPHBSIZE*SPHBSIZE)+SPHBSIZE).
//==============================================================================
float ReduMaxFloat_w(unsigned ndata,unsigned inidata,float4* data,float* resu){
  unsigned n=ndata,ini=inidata;
  unsigned smemSize=SPHBSIZE*sizeof(float);
  dim3 sgrid=GetSimpleGridSize(n,SPHBSIZE);
  unsigned n_blocks=sgrid.x*sgrid.y;
  float* dat=NULL;
  float* resu1=resu;
  float* resu2=resu+n_blocks;
  float* res=resu1;
  while(n>1){
    if(!dat)KerReduMaxFloat_w<SPHBSIZE><<<sgrid,SPHBSIZE,smemSize>>>(n,ini,data,res);
    else KerReduMaxFloat<SPHBSIZE><<<sgrid,SPHBSIZE,smemSize>>>(n,ini,dat,res);
    n=n_blocks; ini=0;
    sgrid=GetSimpleGridSize(n,SPHBSIZE);  
    n_blocks=sgrid.x*sgrid.y;
    if(n>1){
      dat=res; res=(dat==resu1? resu2: resu1); 
    }
  }
  float resf;
  if(ndata>1)cudaMemcpy(&resf,res,sizeof(float),cudaMemcpyDeviceToHost);
  else{
    float4 resf4;
    cudaMemcpy(&resf4,data,sizeof(float4),cudaMemcpyDeviceToHost);
    resf=resf4.w;
  }
  return(resf);
}

//==============================================================================
/// Stores constants for the GPU interaction.
/// Graba constantes para la interaccion a la GPU.
//==============================================================================
void CteInteractionUp(const StCteInteraction* cte){
  cudaMemcpyToSymbol(CTE,cte,sizeof(StCteInteraction));
}

//------------------------------------------------------------------------------
/// Initialises array with the indicated value.
/// Inicializa array con el valor indicado.
//------------------------------------------------------------------------------
__global__ void KerInitArray(unsigned n,float3* v,float3 value)
{
  unsigned p=blockIdx.x*blockDim.x + threadIdx.x; //-Number of particle.
  if(p<n)v[p]=value;
}

//==============================================================================
/// Initialises array with the indicated value.
/// Inicializa array con el valor indicado.
//==============================================================================
void InitArray(unsigned n,float3* v,tfloat3 value){
  if(n){
    dim3 sgrid=GetSimpleGridSize(n,SPHBSIZE);
    KerInitArray <<<sgrid,SPHBSIZE>>> (n,v,Float3(value));
  }
}

//------------------------------------------------------------------------------
/// Sets v[].y to zero.
/// Pone v[].y a cero.
//------------------------------------------------------------------------------
__global__ void KerResety(unsigned n,unsigned ini,float3* v)
{
  unsigned p=blockIdx.x*blockDim.x + threadIdx.x; //-Number of particle.
  if(p<n)v[p+ini].y=0;
}

//==============================================================================
/// Sets v[].y to zero.
/// Pone v[].y a cero.
//==============================================================================
void Resety(unsigned n,unsigned ini,float3* v){
  if(n){
    dim3 sgrid=GetSimpleGridSize(n,SPHBSIZE);
    KerResety <<<sgrid,SPHBSIZE>>> (n,ini,v);
  }
}

//------------------------------------------------------------------------------
/// Calculates module^2 of ace.
//------------------------------------------------------------------------------
__global__ void KerComputeAceMod(unsigned n,const float3* ace,float* acemod)
{
  unsigned p=blockIdx.x*blockDim.x + threadIdx.x; //-Number of particle.
  if(p<n){
    const float3 r=ace[p];
    acemod[p]=r.x*r.x+r.y*r.y+r.z*r.z;
  }
}

//==============================================================================
/// Calculates module^2 of ace.
//==============================================================================
void ComputeAceMod(unsigned n,const float3* ace,float* acemod){
  if(n){
    dim3 sgrid=GetSimpleGridSize(n,SPHBSIZE);
    KerComputeAceMod <<<sgrid,SPHBSIZE>>> (n,ace,acemod);
  }
}

//------------------------------------------------------------------------------
/// Calculates module^2 of ace, comprobando que la particula sea normal.
/// Uses zero for periodic particles.
//------------------------------------------------------------------------------
__global__ void KerComputeAceMod(unsigned n,const typecode* code
  ,const float3* ace,float* acemod)
{
  unsigned p=blockIdx.x*blockDim.x + threadIdx.x; //-Number of particle.
  if(p<n){
    const typecode rcod=code[p];
    const float3 r=(CODE_IsNormal(rcod) && !CODE_IsFluidInout(rcod)? ace[p]: make_float3(0,0,0));
    acemod[p]=r.x*r.x+r.y*r.y+r.z*r.z;
  }
}

//==============================================================================
/// Calculates module^2 of ace, comprobando que la particula sea normal.
/// Uses zero for periodic particles.
//==============================================================================
void ComputeAceMod(unsigned n,const typecode* code,const float3* ace
  ,float* acemod)
{
  if(n){
    dim3 sgrid=GetSimpleGridSize(n,SPHBSIZE);
    KerComputeAceMod <<<sgrid,SPHBSIZE>>> (n,code,ace,acemod);
  }
}


//##############################################################################
//# Other kernels...
//# Otros kernels...
//##############################################################################
//------------------------------------------------------------------------------
/// Calculates module^2 of vel.
//------------------------------------------------------------------------------
__global__ void KerComputeVelMod(unsigned n,const float4* vel,float* velmod)
{
  unsigned p=blockIdx.x*blockDim.x + threadIdx.x; //-Number of particle.
  if(p<n){
    const float4 r=vel[p];
    velmod[p]=r.x*r.x+r.y*r.y+r.z*r.z;
  }
}

//==============================================================================
/// Calculates module^2 of vel.
//==============================================================================
void ComputeVelMod(unsigned n,const float4* vel,float* velmod){
  if(n){
    dim3 sgrid=GetSimpleGridSize(n,SPHBSIZE);
    KerComputeVelMod <<<sgrid,SPHBSIZE>>> (n,vel,velmod);
  }
}


//##############################################################################
//# Kernels para cambiar la posicion.
//# Kernels for changing the position.
//##############################################################################
//------------------------------------------------------------------------------
/// Updates pos, dcell and code from the indicated displacement.
/// The code may be CODE_OUTRHO because in ComputeStepVerlet / Symplectic this is evaluated
/// and is executed before ComputeStepPos.
/// Checks limits depending on maprealposmin and maprealsize, this is valid 
/// for single-GPU because maprealpos and domrealpos are equal. For multi-gpu it is
/// important to mark particles that leave the domain without leaving the map.
///
/// Actualiza pos, dcell y code a partir del desplazamiento indicado.
/// Code puede ser CODE_OUTRHO pq en ComputeStepVerlet/Symplectic se evalua esto 
/// y se ejecuta antes que ComputeStepPos.
/// Comprueba los limites en funcion de maprealposmin y maprealsize esto es valido
/// para single-gpu pq domrealpos y maprealpos son iguales. Para multi-gpu seria 
/// necesario marcar las particulas q salgan del dominio sin salir del mapa.
//------------------------------------------------------------------------------
template<bool periactive> __device__ void KerUpdatePos(
  double2 rxy,double rz,double movx,double movy,double movz
  ,bool outrho,unsigned p,double2* posxy,double* posz,unsigned* dcell
  ,typecode* code)
{
  //-Checks validity of displacement. | Comprueba validez del desplazamiento.
  const bool outmov=(fmaxf(fabsf(float(movx)),fmaxf(fabsf(float(movy)),fabsf(float(movz))))>CTE.movlimit);
  //-Applies diplacement.
  double3 rpos=make_double3(rxy.x,rxy.y,rz);
  rpos.x+=movx; rpos.y+=movy; rpos.z+=movz;
  if(rpos.y<0 && CTE.symmetry)rpos.y=-rpos.y; //<vs_syymmetry>
  //-Checks limits of real domain. | Comprueba limites del dominio reales.
  double dx=rpos.x-CTE.maprealposminx;
  double dy=rpos.y-CTE.maprealposminy;
  double dz=rpos.z-CTE.maprealposminz;
  bool out=(dx!=dx || dy!=dy || dz!=dz || dx<0 || dy<0 || dz<0 || dx>=CTE.maprealsizex || dy>=CTE.maprealsizey || dz>=CTE.maprealsizez);
  if(periactive && out){
    bool xperi=(CTE.periactive&1),yperi=(CTE.periactive&2),zperi=(CTE.periactive&4);
    if(xperi){
      if(dx<0)                { dx-=CTE.xperincx; dy-=CTE.xperincy; dz-=CTE.xperincz; }
      if(dx>=CTE.maprealsizex){ dx+=CTE.xperincx; dy+=CTE.xperincy; dz+=CTE.xperincz; }
    }
    if(yperi){
      if(dy<0)                { dx-=CTE.yperincx; dy-=CTE.yperincy; dz-=CTE.yperincz; }
      if(dy>=CTE.maprealsizey){ dx+=CTE.yperincx; dy+=CTE.yperincy; dz+=CTE.yperincz; }
    }
    if(zperi){
      if(dz<0)                { dx-=CTE.zperincx; dy-=CTE.zperincy; dz-=CTE.zperincz; }
      if(dz>=CTE.maprealsizez){ dx+=CTE.zperincx; dy+=CTE.zperincy; dz+=CTE.zperincz; }
    }
    bool outx=!xperi && (dx<0 || dx>=CTE.maprealsizex);
    bool outy=!yperi && (dy<0 || dy>=CTE.maprealsizey);
    bool outz=!zperi && (dz<0 || dz>=CTE.maprealsizez);
    out=(outx||outy||outz);
    rpos=make_double3(dx+CTE.maprealposminx,dy+CTE.maprealposminy,dz+CTE.maprealposminz);
  }
  //-Stores updated position.
  posxy[p]=make_double2(rpos.x,rpos.y);
  posz[p]=rpos.z;
  //-Stores cell and check. | Guarda celda y check.
  if(outrho || outmov || out){//-Particle out. Only brands as excluded normal particles (not periodic). | Particle out. Solo las particulas normales (no periodicas) se pueden marcar como excluidas.
    typecode rcode=code[p];
    if(out)rcode=CODE_SetOutPos(rcode);
    else if(outrho)rcode=CODE_SetOutRho(rcode);
    else rcode=CODE_SetOutMov(rcode);
    code[p]=rcode;
    dcell[p]=DCEL_CodeMapOut;
  }
  else{//-Particle in.
    if(periactive){
      dx=rpos.x-CTE.domposminx;
      dy=rpos.y-CTE.domposminy;
      dz=rpos.z-CTE.domposminz;
    }
    const unsigned cx=unsigned(dx/CTE.scell);
    const unsigned cy=unsigned(dy/CTE.scell);
    const unsigned cz=unsigned(dz/CTE.scell);
    dcell[p]=DCEL_Cell(CTE.cellcode,cx,cy,cz);
  }
}

//------------------------------------------------------------------------------
/// Returns the corrected position after applying periodic conditions.
/// Devuelve la posicion corregida tras aplicar condiciones periodicas.
//------------------------------------------------------------------------------
__device__ double3 KerUpdatePeriodicPos(double3 ps)
{
  double dx=ps.x-CTE.maprealposminx;
  double dy=ps.y-CTE.maprealposminy;
  double dz=ps.z-CTE.maprealposminz;
  const bool out=(dx!=dx || dy!=dy || dz!=dz || dx<0 || dy<0 || dz<0 || dx>=CTE.maprealsizex || dy>=CTE.maprealsizey || dz>=CTE.maprealsizez);
  //-Adjusts position according to periodic conditions and rechecks domain limits.
  //-Ajusta posicion segun condiciones periodicas y vuelve a comprobar los limites del dominio.
  if(out){
    bool xperi=(CTE.periactive&1),yperi=(CTE.periactive&2),zperi=(CTE.periactive&4);
    if(xperi){
      if(dx<0)                { dx-=CTE.xperincx; dy-=CTE.xperincy; dz-=CTE.xperincz; }
      if(dx>=CTE.maprealsizex){ dx+=CTE.xperincx; dy+=CTE.xperincy; dz+=CTE.xperincz; }
    }
    if(yperi){
      if(dy<0)                { dx-=CTE.yperincx; dy-=CTE.yperincy; dz-=CTE.yperincz; }
      if(dy>=CTE.maprealsizey){ dx+=CTE.yperincx; dy+=CTE.yperincy; dz+=CTE.yperincz; }
    }
    if(zperi){
      if(dz<0)                { dx-=CTE.zperincx; dy-=CTE.zperincy; dz-=CTE.zperincz; }
      if(dz>=CTE.maprealsizez){ dx+=CTE.zperincx; dy+=CTE.zperincy; dz+=CTE.zperincz; }
    }
    ps=make_double3(dx+CTE.maprealposminx,dy+CTE.maprealposminy,dz+CTE.maprealposminz);
  }
  return(ps);
}


//##############################################################################
//# Kernels for calculating forces (Pos-Double).
//# Kernels para calculo de fuerzas (Pos-Double).
//##############################################################################
//------------------------------------------------------------------------------
/// Interaction of a particle with a set of particles. Bound-Fluid/Float
/// Realiza la interaccion de una particula con un conjunto de ellas. Bound-Fluid/Float
//------------------------------------------------------------------------------
template<TpKernel tker,TpFtMode ftmode,bool symm>
  __device__ void KerInteractionForcesBoundBox
  (unsigned p1,const unsigned& pini,const unsigned& pfin
  ,const float* ftomassp
  ,const float4* poscell,const float4* velrho,const typecode* code,const unsigned* idp
  ,float massf,const float4& pscellp1,const float4& velrhop1,float& arp1,float& visc)
{
  for(int p2=pini;p2<pfin;p2++){
    const float4 pscellp2=poscell[p2];
    float drx=pscellp1.x-pscellp2.x + CTE.poscellsize*(PSCEL_GetfX(pscellp1.w)-PSCEL_GetfX(pscellp2.w));
    float dry=pscellp1.y-pscellp2.y + CTE.poscellsize*(PSCEL_GetfY(pscellp1.w)-PSCEL_GetfY(pscellp2.w));
    float drz=pscellp1.z-pscellp2.z + CTE.poscellsize*(PSCEL_GetfZ(pscellp1.w)-PSCEL_GetfZ(pscellp2.w));
    if(symm)dry=pscellp1.y+pscellp2.y + CTE.poscellsize*PSCEL_GetfY(pscellp2.w); //<vs_syymmetry>
    const float rr2=drx*drx+dry*dry+drz*drz;
    if(rr2<=CTE.kernelsize2 && rr2>=ALMOSTZERO){
      //-Computes kernel.
      const float fac=cufsph::GetKernel_Fac<tker>(rr2);
      const float frx=fac*drx,fry=fac*dry,frz=fac*drz; //-Gradients.

      float4 velrhop2=velrho[p2];
      if(symm)velrhop2.y=-velrhop2.y; //<vs_syymmetry>
      //-Obtains particle mass p2 if there are floating bodies.
      //-Obtiene masa de particula p2 en caso de existir floatings.
      float ftmassp2;    //-Contains mass of floating body or massf if fluid. | Contiene masa de particula floating o massf si es fluid.
      bool compute=true; //-Deactivated when DEM is used and is float-float or float-bound. | Se desactiva cuando se usa DEM y es float-float o float-bound.
      if(USE_FLOATING){
        const typecode cod=code[p2];
        bool ftp2=CODE_IsFloating(cod);
        ftmassp2=(ftp2? ftomassp[CODE_GetTypeValue(cod)]: massf);
        compute=!(USE_FTEXTERNAL && ftp2); //-Deactivated when DEM or Chrono is used and is bound-float. | Se desactiva cuando se usa DEM o Chrono y es bound-float.
      }

      if(compute){
        //-Density derivative (Continuity equation).
        const float dvx=velrhop1.x-velrhop2.x, dvy=velrhop1.y-velrhop2.y, dvz=velrhop1.z-velrhop2.z;
        arp1+=(USE_FLOATING? ftmassp2: massf)*(dvx*frx+dvy*fry+dvz*frz)*(velrhop1.w/velrhop2.w);

        {//===== Viscosity ===== 
          const float dot=drx*dvx + dry*dvy + drz*dvz;
          const float dot_rr2=dot/(rr2+CTE.eta2);
          visc=max(dot_rr2,visc); 
        }
      }
    }
  }
}

//------------------------------------------------------------------------------
/// Particle interaction. Bound-Fluid/Float
/// Realiza interaccion entre particulas. Bound-Fluid/Float
//------------------------------------------------------------------------------
template<TpKernel tker,TpFtMode ftmode,bool symm> 
  __global__ void KerInteractionForcesBound(unsigned n,unsigned pinit
  ,int scelldiv,int4 nc,int3 cellzero,const int2* beginendcellfluid,const unsigned* dcell
  ,const float* ftomassp
  ,const float4* poscell,const float4* velrho,const typecode* code,const unsigned* idp
  ,float* viscdt,float* ar)
{
  const unsigned p=blockIdx.x*blockDim.x + threadIdx.x; //-Number of thread.
  if(p<n){
    const unsigned p1=p+pinit;      //-Number of particle.
    float visc=0,arp1=0;

    //-Loads particle p1 data.
    const float4 pscellp1=poscell[p1];
    const float4 velrhop1=velrho[p1];
    const bool rsymp1=(symm && PSCEL_GetPartY(__float_as_uint(pscellp1.w))==0); //<vs_syymmetry>
    
    //-Obtains neighborhood search limits.
    int ini1,fin1,ini2,fin2,ini3,fin3;
    cunsearch::InitCte(dcell[p1],scelldiv,nc,cellzero,ini1,fin1,ini2,fin2,ini3,fin3);

    //-Boundary-Fluid interaction.
    for(int c3=ini3;c3<fin3;c3+=nc.w)for(int c2=ini2;c2<fin2;c2+=nc.x){
      unsigned pini,pfin=0;  cunsearch::ParticleRange(c2,c3,ini1,fin1,beginendcellfluid,pini,pfin);
      if(pfin){
                          KerInteractionForcesBoundBox<tker,ftmode,false> (p1,pini,pfin,ftomassp,poscell,velrho,code,idp,CTE.massf,pscellp1,velrhop1,arp1,visc);
        if(symm && rsymp1)KerInteractionForcesBoundBox<tker,ftmode,true > (p1,pini,pfin,ftomassp,poscell,velrho,code,idp,CTE.massf,pscellp1,velrhop1,arp1,visc);
      }
    }
    //-Stores results.
    if(arp1 || visc){
      ar[p1]+=arp1;
      if(visc>viscdt[p1])viscdt[p1]=visc;
    }
  }
}

//------------------------------------------------------------------------------
/// Interaction of a particle with a set of particles. (Fluid/Float-Fluid/Float/Bound)
/// Realiza la interaccion de una particula con un conjunto de ellas. (Fluid/Float-Fluid/Float/Bound)
//------------------------------------------------------------------------------
template<TpKernel tker,TpFtMode ftmode,TpVisco tvisco,TpDensity tdensity,bool shift,bool symm>
  __device__ void KerInteractionForcesFluidBox(bool boundp2,unsigned p1
  ,const unsigned& pini,const unsigned& pfin,float visco
  ,const float* ftomassp,const float2* tauff,const float3* dengradcorr
  ,const float4* poscell,const float4* velrho,const typecode* code,const unsigned* idp
  ,float massp2,bool ftp1
  ,const float4& pscellp1,const float4& velrhop1,float pressp1
  ,const float2& taup1_xx_xy,const float2& taup1_xz_yy,const float2& taup1_yz_zz
  ,float2& two_strainp1_xx_xy,float2& two_strainp1_xz_yy,float2& two_strainp1_yz_zz
  ,float3& acep1,float& arp1,float& visc,float& deltap1
  ,TpShifting shiftmode,float4& shiftposfsp1
  ,const float3* boundnormal, const float* boundonoff, const float3* motionvel)
{
  for(int p2=pini;p2<pfin;p2++){
    const float4 pscellp2=poscell[p2];
    float drx=pscellp1.x-pscellp2.x + CTE.poscellsize*(PSCEL_GetfX(pscellp1.w)-PSCEL_GetfX(pscellp2.w));
    float dry=pscellp1.y-pscellp2.y + CTE.poscellsize*(PSCEL_GetfY(pscellp1.w)-PSCEL_GetfY(pscellp2.w));
    float drz=pscellp1.z-pscellp2.z + CTE.poscellsize*(PSCEL_GetfZ(pscellp1.w)-PSCEL_GetfZ(pscellp2.w));
    if(symm)dry=pscellp1.y+pscellp2.y + CTE.poscellsize*PSCEL_GetfY(pscellp2.w); //<vs_syymmetry>
    const float rr2=drx*drx+dry*dry+drz*drz;
    if(rr2<=CTE.kernelsize2 && rr2>=ALMOSTZERO){
      //-Computes kernel.
      const float fac=cufsph::GetKernel_Fac<tker>(rr2);
      const float frx=fac*drx,fry=fac*dry,frz=fac*drz; //-Gradients.

      //-Obtains mass of particle p2 if any floating bodies exist.
      //-Obtiene masa de particula p2 en caso de existir floatings.
      bool ftp2=false;         //-Indicates if it is floating. | Indica si es floating.
      float ftmassp2;    //-Contains mass of floating body or massf if fluid. | Contiene masa de particula floating o massp2 si es bound o fluid.
      bool compute=true; //-Deactivated when DEM is used and is float-float or float-bound. | Se desactiva cuando se usa DEM y es float-float o float-bound.
      if(USE_FLOATING){
        const typecode cod=code[p2];
        ftp2=CODE_IsFloating(cod);
        ftmassp2=(ftp2? ftomassp[CODE_GetTypeValue(cod)]: massp2);
        #ifdef DELTA_HEAVYFLOATING
          if(ftp2 && tdensity==DDT_DDT && ftmassp2<=(massp2*1.2f))deltap1=FLT_MAX;
        #else
          if(ftp2 && tdensity==DDT_DDT)deltap1=FLT_MAX;
        #endif
        if(ftp2 && shift && shiftmode==SHIFT_NoBound)shiftposfsp1.x=FLT_MAX; //-Cancels shifting with floating bodies. | Con floatings anula shifting.
        compute=!(USE_FTEXTERNAL && ftp1 && (boundp2 || ftp2)); //-Deactivated when DEM or Chrono is used and is float-float or float-bound. | Se desactiva cuando se usa DEM o Chrono y es float-float o float-bound.
      }

      float4 velrhop2=velrho[p2];
      if(symm)velrhop2.y=-velrhop2.y; //<vs_syymmetry>

      // SHABA setting up boundary normals and new boundary velocities
      float3 normalp2 = make_float3(0, 0, 0); // creating a normailsed boundary normal
      float3 normalvelp2 = make_float3(0, 0, 0); // boundary particle velocity normal to boundary used in con of mass
      float3 tangentvelp2 = make_float3(0, 0, 0); // boundary particle velocity tangent to boundary used in momentu
      float3 movvelp2 = motionvel[p2];
      
      if (boundp2) {//changing things if fluid-bound
          float norm = sqrt(boundnormal[p2].x * boundnormal[p2].x + boundnormal[p2].y * boundnormal[p2].y + boundnormal[p2].z * boundnormal[p2].z);
          if (norm > 0.f) { // mDBC
              normalp2.x = boundnormal[p2].x / norm; normalp2.y = boundnormal[p2].y / norm; normalp2.z = boundnormal[p2].z / norm;
              // calculating boundary particle velocity components
              float veldotnorm = velrhop2.x * normalp2.x + velrhop2.y * normalp2.y + velrhop2.z * normalp2.z;
              normalvelp2.x = veldotnorm * normalp2.x; normalvelp2.y = veldotnorm * normalp2.y; normalvelp2.z = veldotnorm * normalp2.z;
              tangentvelp2.x = velrhop2.x - normalvelp2.x; tangentvelp2.y = velrhop2.y - normalvelp2.y; tangentvelp2.z = velrhop2.z - normalvelp2.z;
          }
          else { // DBC hopefulyl this doesnt break it
              normalvelp2.x = velrhop2.x; normalvelp2.y = velrhop2.y; normalvelp2.z = velrhop2.z;
              tangentvelp2.x = velrhop2.x; tangentvelp2.y = velrhop2.y; tangentvelp2.z = velrhop2.z;
          }
          // changing the mass of boundary particle with boundonoff
          massp2 = boundonoff[p2] * massp2; 
      }
      
      //-Velocity derivative (Momentum equation).
      if(compute){
        const float pressp2=cufsph::ComputePressCte(velrhop2.w);
        const float prs=(pressp1+pressp2)/(velrhop1.w*velrhop2.w)
          +(tker==KERNEL_Cubic? cufsph::GetKernelCubic_Tensil(rr2,velrhop1.w,pressp1,velrhop2.w,pressp2): 0);
        const float p_vpm=-prs*(USE_FLOATING? ftmassp2: massp2);
        acep1.x+=p_vpm*frx; acep1.y+=p_vpm*fry; acep1.z+=p_vpm*frz;
      }

      //-Density derivative (Continuity equation).
      float dvx=velrhop1.x-velrhop2.x, dvy=velrhop1.y-velrhop2.y, dvz=velrhop1.z-velrhop2.z;
      if (boundp2) {
          dvx = velrhop1.x - movvelp2.x; dvy = velrhop1.y - movvelp2.y; dvz = velrhop1.z - movvelp2.z; // SHABA no slip mDBC
      }
      if(compute)arp1+=(USE_FLOATING? ftmassp2: massp2)*(dvx*frx+dvy*fry+dvz*frz)*(velrhop1.w/velrhop2.w);

      const float cbar=CTE.cs0;
      const float dot3=(tdensity!=DDT_None || shift? drx*frx+dry*fry+drz*frz: 0);
      //-Density Diffusion Term (Molteni and Colagrossi 2009).
      if(tdensity==DDT_DDT && deltap1!=FLT_MAX){
        const float rhop1over2=velrhop1.w/velrhop2.w;
        const float visc_densi=CTE.ddtkh*cbar*(rhop1over2-1.f)/(rr2+CTE.eta2);
        const float delta=visc_densi*dot3*(USE_FLOATING? ftmassp2: massp2);
        //deltap1=(boundp2? FLT_MAX: deltap1+delta);
        deltap1=(boundp2 && CTE.tboundary==BC_DBC? FLT_MAX: deltap1+delta);
      }
      //-Density Diffusion Term (Fourtakas et al 2019).
      if((tdensity==DDT_DDT2 || (tdensity==DDT_DDT2Full && !boundp2)) && deltap1!=FLT_MAX && !ftp2){
        const float rh=1.f+CTE.ddtgz*drz;
        const float drho=CTE.rhopzero*pow(rh,1.f/CTE.gamma)-CTE.rhopzero;  
        const float visc_densi=CTE.ddtkh*cbar*((velrhop2.w-velrhop1.w)-drho)/(rr2+CTE.eta2);
        const float delta=visc_densi*dot3*massp2/velrhop2.w;
        deltap1=(boundp2? FLT_MAX: deltap1-delta); //-blocks it makes it boil - bloody DBC
      }

      //-Shifting correction.
      if(shift && shiftposfsp1.x!=FLT_MAX){
        const float massrho=(USE_FLOATING? ftmassp2: massp2)/velrhop2.w;
        const bool noshift=(boundp2 && (shiftmode==SHIFT_NoBound || (shiftmode==SHIFT_NoFixed && CODE_IsFixed(code[p2]))));
        shiftposfsp1.x=(noshift? FLT_MAX: shiftposfsp1.x+massrho*frx); //-Removes shifting for the boundaries. | Con boundary anula shifting.
        shiftposfsp1.y+=massrho*fry;
        shiftposfsp1.z+=massrho*frz;
        shiftposfsp1.w-=massrho*dot3;
      }

      //===== Viscosity ===== 
      if(compute){
        if (boundp2) {
            dvx = velrhop1.x - tangentvelp2.x; dvy = velrhop1.y - tangentvelp2.y; dvz = velrhop1.z - tangentvelp2.z; // SHABA no slip mDBC
        }
        const float dot=drx*dvx + dry*dvy + drz*dvz;
        const float dot_rr2=dot/(rr2+CTE.eta2);
        visc=max(dot_rr2,visc);  //ViscDt=max(dot/(rr2+Eta2),ViscDt);
        if(tvisco==VISCO_Artificial){//-Artificial viscosity.
          if(dot<0){
            const float amubar=CTE.kernelh*dot_rr2;  //amubar=CTE.kernelh*dot/(rr2+CTE.eta2);
            const float robar=(velrhop1.w+velrhop2.w)*0.5f;
            const float pi_visc=(-visco*cbar*amubar/robar)*(USE_FLOATING? ftmassp2: massp2);
            acep1.x-=pi_visc*frx; acep1.y-=pi_visc*fry; acep1.z-=pi_visc*frz;
          }
        }
        if(tvisco==VISCO_Laminar || tvisco==VISCO_LaminarSPS){//-Laminar and Laminar+SPS viscosity.
          const float robar2=(velrhop1.w+velrhop2.w);
          const float temp=4.f*visco/((rr2+CTE.eta2)*robar2);  //-Simplication of temp=2.0f*visco/((rr2+CTE.eta2)*robar); robar=(rhopp1+velrhop2.w)*0.5f;
          const float vtemp=(USE_FLOATING? ftmassp2: massp2)*temp*(drx*frx+dry*fry+drz*frz);  
          acep1.x+=vtemp*dvx; acep1.y+=vtemp*dvy; acep1.z+=vtemp*dvz;
        }
        if(tvisco==VISCO_LaminarSPS){//-SPS contribution for Laminar viscosity. 
          //-SPS turbulence model.
          //-Note that taup1 is tau_a/rho_a^2 for interaction of particle a and b.
          //-And taup1 is always zero when p1 is not a fluid particle.
          float2 stau_xx_xy=taup1_xx_xy;
          float2 stau_xz_yy=taup1_xz_yy;
          float2 stau_yz_zz=taup1_yz_zz;
          if(!boundp2 && (USE_NOFLOATING || !ftp2)){//-When p2 is fluid.
            //-Note that taup2 is tau_b/rho_b^2 for interaction of particle a and b.
            float2 taup2=tauff[p2*3];     stau_xx_xy.x+=taup2.x; stau_xx_xy.y+=taup2.y;
                   taup2=tauff[p2*3+1];   stau_xz_yy.x+=taup2.x; stau_xz_yy.y+=taup2.y;
                   taup2=tauff[p2*3+2];   stau_yz_zz.x+=taup2.x; stau_yz_zz.y+=taup2.y;
          }
          acep1.x+=(USE_FLOATING? ftmassp2: massp2)*(stau_xx_xy.x*frx + stau_xx_xy.y*fry + stau_xz_yy.x*frz);
          acep1.y+=(USE_FLOATING? ftmassp2: massp2)*(stau_xx_xy.y*frx + stau_xz_yy.y*fry + stau_yz_zz.x*frz);
          acep1.z+=(USE_FLOATING? ftmassp2: massp2)*(stau_xz_yy.x*frx + stau_yz_zz.x*fry + stau_yz_zz.y*frz);
          //-Velocity gradients.
          if(USE_NOFLOATING || !ftp1){//-When p1 is fluid.
            const float volp2=-(USE_FLOATING? ftmassp2: massp2)/velrhop2.w;
            float dv=dvx*volp2; two_strainp1_xx_xy.x+=dv*frx; two_strainp1_xx_xy.y+=dv*fry; two_strainp1_xz_yy.x+=dv*frz;
                  dv=dvy*volp2; two_strainp1_xx_xy.y+=dv*frx; two_strainp1_xz_yy.y+=dv*fry; two_strainp1_yz_zz.x+=dv*frz;
                  dv=dvz*volp2; two_strainp1_xz_yy.x+=dv*frx; two_strainp1_yz_zz.x+=dv*fry; two_strainp1_yz_zz.y+=dv*frz;
            // to compute tau terms we assume that two_strain.xy=dudy+dvdx, two_strain.xz=dudz+dwdx, two_strain.yz=dvdz+dwdy
            // so only 6 elements are needed instead of 3x3.
          }
        }
      }
    }
  }
}

//------------------------------------------------------------------------------
/// Interaction between particles. Fluid/Float-Fluid/Float or Fluid/Float-Bound.
/// Includes artificial/laminar viscosity and normal/DEM floating bodies.
///
/// Realiza interaccion entre particulas. Fluid/Float-Fluid/Float or Fluid/Float-Bound
/// Incluye visco artificial/laminar y floatings normales/dem.
//------------------------------------------------------------------------------
template<TpKernel tker,TpFtMode ftmode,TpVisco tvisco,TpDensity tdensity,bool shift,bool symm>
  __global__ void KerInteractionForcesFluid(unsigned n,unsigned pinit,float viscob,float viscof
  ,int scelldiv,int4 nc,int3 cellzero,const int2* begincell,unsigned cellfluid
  ,const unsigned* dcell,const float* ftomassp,const float2* tauff,float2* two_strain
  ,const float3* dengradcorr,const float4* poscell,const float4* velrho
  ,const typecode* code,const unsigned* idp,float* viscdt,float* ar,float3* ace
  ,float* delta,TpShifting shiftmode,float4* shiftposfs
  ,const float3* boundnormal,const float* boundonoff,const float3* motionvel)
{
  const unsigned p=blockIdx.x*blockDim.x + threadIdx.x; //-Number of particle.
  if(p<n){
    const unsigned p1=p+pinit;      //-Number of particle.
    float visc=0,arp1=0,deltap1=0;
    float3 acep1=make_float3(0,0,0);

    //-Variables for Shifting.
    float4 shiftposfsp1;
    if(shift)shiftposfsp1=shiftposfs[p1];

    //-Obtains data of particle p1 in case there are floating bodies.
    bool ftp1;       //-Indicates if it is floating. | Indica si es floating.
    if(USE_FLOATING){
      const typecode cod=code[p1];
      ftp1=CODE_IsFloating(cod);
      if(ftp1 && tdensity!=DDT_None)deltap1=FLT_MAX; //-DDT is not applied to floating particles.
      if(ftp1 && shift)shiftposfsp1.x=FLT_MAX; //-Shifting is not calculated for floating bodies. | Para floatings no se calcula shifting.
    }

    //-Obtains basic data of particle p1.
    const float4 pscellp1=poscell[p1];
    const float4 velrhop1=velrho[p1];
    const float pressp1=cufsph::ComputePressCte(velrhop1.w);
    const bool rsymp1=(symm && PSCEL_GetPartY(__float_as_uint(pscellp1.w))==0); //<vs_syymmetry>

    //-Variables for Laminar+SPS.
    float2 taup1_xx_xy,taup1_xz_yy,taup1_yz_zz; //-Note that taup1 is tau_a/rho_a^2.
    if(tvisco==VISCO_LaminarSPS){
      taup1_xx_xy=tauff[p1*3];
      taup1_xz_yy=tauff[p1*3+1];
      taup1_yz_zz=tauff[p1*3+2];
    }
    //-Variables for Laminar+SPS (computation).
    float2 two_strainp1_xx_xy,two_strainp1_xz_yy,two_strainp1_yz_zz;
    if(tvisco==VISCO_LaminarSPS){
      two_strainp1_xx_xy=make_float2(0,0);
      two_strainp1_xz_yy=make_float2(0,0);
      two_strainp1_yz_zz=make_float2(0,0);
    }

    //-Obtains neighborhood search limits.
    int ini1,fin1,ini2,fin2,ini3,fin3;
    cunsearch::InitCte(dcell[p1],scelldiv,nc,cellzero,ini1,fin1,ini2,fin2,ini3,fin3);

    //-Interaction with fluids.
    ini3+=cellfluid; fin3+=cellfluid;
    for(int c3=ini3;c3<fin3;c3+=nc.w)for(int c2=ini2;c2<fin2;c2+=nc.x){
      unsigned pini,pfin=0;  cunsearch::ParticleRange(c2,c3,ini1,fin1,begincell,pini,pfin);
      if(pfin){
                          KerInteractionForcesFluidBox<tker,ftmode,tvisco,tdensity,shift,false> (false
                            ,p1,pini,pfin,viscof,ftomassp,tauff,dengradcorr,poscell,velrho,code,idp
                            ,CTE.massf,ftp1,pscellp1,velrhop1,pressp1,taup1_xx_xy,taup1_xz_yy,taup1_yz_zz
                            ,two_strainp1_xx_xy,two_strainp1_xz_yy,two_strainp1_yz_zz,acep1,arp1,visc
                            ,deltap1,shiftmode,shiftposfsp1,boundnormal,boundonoff,motionvel);
        //<vs_syymmetry_ini>
        if(symm && rsymp1)KerInteractionForcesFluidBox<tker,ftmode,tvisco,tdensity,shift,true > (false
                            ,p1,pini,pfin,viscof,ftomassp,tauff,dengradcorr,poscell,velrho,code,idp
                            ,CTE.massf,ftp1,pscellp1,velrhop1,pressp1,taup1_xx_xy,taup1_xz_yy,taup1_yz_zz
                            ,two_strainp1_xx_xy,two_strainp1_xz_yy,two_strainp1_yz_zz,acep1,arp1,visc
                            ,deltap1,shiftmode,shiftposfsp1,boundnormal,boundonoff,motionvel);
        //<vs_syymmetry_end>
      }
    }
    //-Interaction with boundaries.
    ini3-=cellfluid; fin3-=cellfluid;
    for(int c3=ini3;c3<fin3;c3+=nc.w)for(int c2=ini2;c2<fin2;c2+=nc.x){
      unsigned pini,pfin=0;  cunsearch::ParticleRange(c2,c3,ini1,fin1,begincell,pini,pfin);
      if(pfin){
                          KerInteractionForcesFluidBox<tker,ftmode,tvisco,tdensity,shift,false> (true
                            ,p1,pini,pfin,viscob,ftomassp,tauff,NULL,poscell,velrho,code,idp,CTE.massb
                            ,ftp1,pscellp1,velrhop1,pressp1,taup1_xx_xy,taup1_xz_yy,taup1_yz_zz
                            ,two_strainp1_xx_xy,two_strainp1_xz_yy,two_strainp1_yz_zz,acep1,arp1,visc
                            ,deltap1,shiftmode,shiftposfsp1,boundnormal,boundonoff,motionvel);
        //<vs_syymmetry_ini>
        if(symm && rsymp1)KerInteractionForcesFluidBox<tker,ftmode,tvisco,tdensity,shift,true > (true 
                            ,p1,pini,pfin,viscob,ftomassp,tauff,NULL,poscell,velrho,code,idp,CTE.massb
                            ,ftp1,pscellp1,velrhop1,pressp1,taup1_xx_xy,taup1_xz_yy,taup1_yz_zz
                            ,two_strainp1_xx_xy,two_strainp1_xz_yy,two_strainp1_yz_zz,acep1,arp1,visc
                            ,deltap1,shiftmode,shiftposfsp1,boundnormal,boundonoff,motionvel);
        //<vs_syymmetry_end>
      }
    }

    //-Stores results.
    if(shift||arp1||acep1.x||acep1.y||acep1.z||visc){
      if(tdensity!=DDT_None){
        if(delta){
          const float rdelta=delta[p1];
          delta[p1]=(rdelta==FLT_MAX || deltap1==FLT_MAX? FLT_MAX: rdelta+deltap1);
        }
        else if(deltap1!=FLT_MAX)arp1+=deltap1;
      }
      ar[p1]+=arp1;
      float3 r=ace[p1]; r.x+=acep1.x; r.y+=acep1.y; r.z+=acep1.z; ace[p1]=r;
      if(visc>viscdt[p1])viscdt[p1]=visc;
      if(tvisco==VISCO_LaminarSPS){
        float2 rg;
        rg=two_strain[p1*3  ];  rg=make_float2(rg.x+two_strainp1_xx_xy.x,rg.y+two_strainp1_xx_xy.y);  two_strain[p1*3  ]=rg;
        rg=two_strain[p1*3+1];  rg=make_float2(rg.x+two_strainp1_xz_yy.x,rg.y+two_strainp1_xz_yy.y);  two_strain[p1*3+1]=rg;
        rg=two_strain[p1*3+2];  rg=make_float2(rg.x+two_strainp1_yz_zz.x,rg.y+two_strainp1_yz_zz.y);  two_strain[p1*3+2]=rg;
      }
      if(shift)shiftposfs[p1]=shiftposfsp1;
    }
  }
}

#ifndef DISABLE_BSMODES
//==============================================================================
/// Collects kernel information.
//==============================================================================
template<TpKernel tker,TpFtMode ftmode,TpVisco tvisco,TpDensity tdensity,bool shift,bool symm> 
  void Interaction_ForcesT_KerInfo(StKerInfo* kerinfo)
{
 #if CUDART_VERSION >= 6050
  {
    typedef void (*fun_ptr)(unsigned,unsigned,float,float,int,int4,int3,const int2*,unsigned,const unsigned*,const float*,const float2*,float2*,const float3*,const float4*,const float4*,const typecode*,const unsigned*,float*,float*,float3*,float*,TpShifting,float4*
      ,const float3* boundnormal,const float* boundonoff,const float3* motionvel);
    fun_ptr ptr=&KerInteractionForcesFluid<tker,ftmode,tvisco,tdensity,shift,symm>;
    int qblocksize=0,mingridsize=0;
    cudaOccupancyMaxPotentialBlockSize(&mingridsize,&qblocksize,(void*)ptr,0,0);
    struct cudaFuncAttributes attr;
    cudaFuncGetAttributes(&attr,(void*)ptr);
    kerinfo->forcesfluid_bs=qblocksize;
    kerinfo->forcesfluid_rg=attr.numRegs;
    kerinfo->forcesfluid_bsmax=attr.maxThreadsPerBlock;
    //printf(">> KerInteractionForcesFluid  blocksize:%u (%u)\n",qblocksize,0);
  }
  {
    typedef void (*fun_ptr)(unsigned,unsigned,int,int4,int3,const int2*,const unsigned*,const float*,const float4*,const float4*,const typecode*,const unsigned*,float*,float*);
    fun_ptr ptr=&KerInteractionForcesBound<tker,ftmode,symm>;
    int qblocksize=0,mingridsize=0;
    cudaOccupancyMaxPotentialBlockSize(&mingridsize,&qblocksize,(void*)ptr,0,0);
    struct cudaFuncAttributes attr;
    cudaFuncGetAttributes(&attr,(void*)ptr);
    kerinfo->forcesbound_bs=qblocksize;
    kerinfo->forcesbound_rg=attr.numRegs;
    kerinfo->forcesbound_bsmax=attr.maxThreadsPerBlock;
    //printf(">> KerInteractionForcesBound  blocksize:%u (%u)\n",qblocksize,0);
  }
  fcuda::Check_CudaErroorFun("Error collecting kernel information.");
 #endif
}
#endif

//==============================================================================
/// Interaction for the force computation.
/// Interaccion para el calculo de fuerzas.
//==============================================================================
template<TpKernel tker,TpFtMode ftmode,TpVisco tvisco,TpDensity tdensity,bool shift> 
  void Interaction_ForcesGpuT(const StInterParmsg& t)
{
  //-Collects kernel information.
#ifndef DISABLE_BSMODES
  if(t.kerinfo){
    Interaction_ForcesT_KerInfo<tker,ftmode,tvisco,tdensity,shift,false>(t.kerinfo);
    return;
  }
#endif
  const StDivDataGpu& dvd=t.divdatag;
  const int2* beginendcell=dvd.beginendcell;
  //-Interaction Fluid-Fluid & Fluid-Bound.
  if(t.fluidnum){
    //printf("[ns:%u  id:%d] halo:%d fini:%d(%d) bini:%d(%d)\n",t.nstep,t.id,t.halo,t.fluidini,t.fluidnum,t.boundini,t.boundnum);
    dim3 sgridf=GetSimpleGridSize(t.fluidnum,t.bsfluid);
    if(t.symmetry) //<vs_syymmetry_ini>
      KerInteractionForcesFluid<tker,ftmode,tvisco,tdensity,shift,true> <<<sgridf,t.bsfluid,0,t.stm>>> 
      (t.fluidnum,t.fluidini,t.viscob,t.viscof,dvd.scelldiv,dvd.nc,dvd.cellzero,dvd.beginendcell,dvd.cellfluid,t.dcell
      ,t.ftomassp,(const float2*)t.spstaurho2,(float2*)t.sps2strain,t.dengradcorr,t.poscell,t.velrho,t.code,t.idp
      ,t.viscdt,t.ar,t.ace,t.delta,t.shiftmode,t.shiftposfs,t.boundnormal,t.boundonoff,t.motionvel);
    else //<vs_syymmetry_end>
      KerInteractionForcesFluid<tker,ftmode,tvisco,tdensity,shift,false> <<<sgridf,t.bsfluid,0,t.stm>>> 
      (t.fluidnum,t.fluidini,t.viscob,t.viscof,dvd.scelldiv,dvd.nc,dvd.cellzero,dvd.beginendcell,dvd.cellfluid,t.dcell
      ,t.ftomassp,(const float2*)t.spstaurho2,(float2*)t.sps2strain,t.dengradcorr,t.poscell,t.velrho,t.code,t.idp
      ,t.viscdt,t.ar,t.ace,t.delta,t.shiftmode,t.shiftposfs,t.boundnormal,t.boundonoff,t.motionvel);
      //KerInteractionForcesFluid<tker,ftmode,tvisco,tdensity,shift,false> <<<sgridf,t.bsfluid,0,t.stm>>> (t.fluidnum,t.fluidini,t.scelldiv,t.nc,t.cellfluid,t.viscob,t.viscof,t.begincell,Int3(t.cellmin),t.dcell,t.ftomassp,(const float2*)t.tau,(float2*)t.gradvel,t.poscell,t.velrho,t.code,t.idp,t.viscdt,t.ar,t.ace,t.delta,t.shiftmode,t.shiftposfs);
  }
  //-Interaction Boundary-Fluid.
  if(t.boundnum){
    const int2* beginendcellfluid=dvd.beginendcell+dvd.cellfluid;
    dim3 sgridb=GetSimpleGridSize(t.boundnum,t.bsbound);
    //printf("bsbound:%u\n",bsbound);
    if(t.symmetry) //<vs_syymmetry_ini>
      KerInteractionForcesBound<tker,ftmode,true > <<<sgridb,t.bsbound,0,t.stm>>> 
      (t.boundnum,t.boundini,dvd.scelldiv,dvd.nc,dvd.cellzero,beginendcell+dvd.cellfluid,t.dcell
        ,t.ftomassp,t.poscell,t.velrho,t.code,t.idp,t.viscdt,t.ar);
    else //<vs_syymmetry_end>
      KerInteractionForcesBound<tker,ftmode,false> <<<sgridb,t.bsbound,0,t.stm>>> 
      (t.boundnum,t.boundini,dvd.scelldiv,dvd.nc,dvd.cellzero,beginendcellfluid,t.dcell
        ,t.ftomassp,t.poscell,t.velrho,t.code,t.idp,t.viscdt,t.ar);
  }
}

//==============================================================================
//#define FAST_COMPILATION
template<TpKernel tker,TpFtMode ftmode,TpVisco tvisco>
  void Interaction_Forces_gt2(const StInterParmsg& t)
{
#ifdef FAST_COMPILATION
  if(t.shiftmode || t.tdensity!=DDT_DDT4)throw "Shifting and extra DDT are disabled for FastCompilation...";
  Interaction_ForcesGpuT<tker,ftmode,tvisco,DDT_DDT4,false> (t);
#else
  if(t.shiftmode){               const bool shift=true;
    if(t.tdensity==DDT_None)    Interaction_ForcesGpuT<tker,ftmode,tvisco,DDT_None    ,shift> (t);
    if(t.tdensity==DDT_DDT)     Interaction_ForcesGpuT<tker,ftmode,tvisco,DDT_DDT     ,shift> (t);
    if(t.tdensity==DDT_DDT2)    Interaction_ForcesGpuT<tker,ftmode,tvisco,DDT_DDT2    ,shift> (t);
    if(t.tdensity==DDT_DDT2Full)Interaction_ForcesGpuT<tker,ftmode,tvisco,DDT_DDT2Full,shift> (t);
  }
  else{                           const bool shift=false;
    if(t.tdensity==DDT_None)    Interaction_ForcesGpuT<tker,ftmode,tvisco,DDT_None    ,shift> (t);
    if(t.tdensity==DDT_DDT)     Interaction_ForcesGpuT<tker,ftmode,tvisco,DDT_DDT     ,shift> (t);
    if(t.tdensity==DDT_DDT2)    Interaction_ForcesGpuT<tker,ftmode,tvisco,DDT_DDT2    ,shift> (t);
    if(t.tdensity==DDT_DDT2Full)Interaction_ForcesGpuT<tker,ftmode,tvisco,DDT_DDT2Full,shift> (t);
  }
#endif
}
//==============================================================================
template<TpKernel tker,TpFtMode ftmode> 
  void Interaction_Forces_gt1(const StInterParmsg& t)
{
#ifdef FAST_COMPILATION
  if(t.tvisco!=VISCO_Artificial)throw "Extra viscosity options are disabled for FastCompilation...";
  Interaction_Forces_gt2<tker,ftmode,VISCO_Artificial> (t);
#else
  if(t.tvisco==VISCO_Artificial)     Interaction_Forces_gt2<tker,ftmode,VISCO_Artificial>(t);
  else if(t.tvisco==VISCO_Laminar)   Interaction_Forces_gt2<tker,ftmode,VISCO_Laminar>   (t);
  else if(t.tvisco==VISCO_LaminarSPS)Interaction_Forces_gt2<tker,ftmode,VISCO_LaminarSPS>(t);
#endif
}
//==============================================================================
template<TpKernel tker> void Interaction_Forces_gt0(const StInterParmsg& t){
#ifdef FAST_COMPILATION
  if(t.ftmode!=FTMODE_None)throw "Extra FtMode options are disabled for FastCompilation...";
  Interaction_Forces_gt1<tker,FTMODE_None> (t);
#else
  if(t.ftmode==FTMODE_None)    Interaction_Forces_gt1<tker,FTMODE_None> (t);
  else if(t.ftmode==FTMODE_Sph)Interaction_Forces_gt1<tker,FTMODE_Sph>  (t);
  else if(t.ftmode==FTMODE_Ext)Interaction_Forces_gt1<tker,FTMODE_Ext>  (t);
#endif
}
//==============================================================================
void Interaction_Forces(const StInterParmsg& t){
#ifdef FAST_COMPILATION
  if(t.tkernel!=KERNEL_Wendland)throw "Extra kernels are disabled for FastCompilation...";
  Interaction_Forces_gt0<KERNEL_Wendland> (t);
#else
  if(t.tkernel==KERNEL_Wendland)     Interaction_Forces_gt0<KERNEL_Wendland> (t);
 #ifndef DISABLE_KERNELS_EXTRA
  else if(t.tkernel==KERNEL_Cubic)   Interaction_Forces_gt0<KERNEL_Cubic   > (t);
 #endif
#endif
}

//------------------------------------------------------------------------------
/// Returns the corrected position after applying periodic conditions.
/// Devuelve la posicion corregida tras aplicar condiciones periodicas.
//------------------------------------------------------------------------------
__device__ float4 KerComputePosCell(const double3& ps,const double3& mapposmin
  ,float poscellsize)
{
  const double dx=ps.x-mapposmin.x;
  const double dy=ps.y-mapposmin.y;
  const double dz=ps.z-mapposmin.z;
  int cx=int(dx/poscellsize);
  int cy=int(dy/poscellsize);
  int cz=int(dz/poscellsize);
  cx=(cx>=0? cx: 0);
  cy=(cy>=0? cy: 0);
  cz=(cz>=0? cz: 0);
  const float px=float(dx-(double(poscellsize)*cx));
  const float py=float(dy-(double(poscellsize)*cy));
  const float pz=float(dz-(double(poscellsize)*cz));
  const float pw=__uint_as_float(PSCEL_Code(cx,cy,cz));
  return(make_float4(px,py,pz,pw));
}

//------------------------------------------------------------------------------
/// Perform interaction between ghost node of selected bondary and fluid.
//------------------------------------------------------------------------------
template<TpKernel tker,bool sim2d,TpSlipMode tslip>
  __global__ void KerInteractionMdbcCorrection_Fast
  (unsigned n,unsigned nbound,float determlimit,float mdbcthreshold
  ,double3 mapposmin,float poscellsize,const float4* poscell
  ,int scelldiv,int4 nc,int3 cellzero,const int2* beginendcellfluid
  ,const double2* posxy,const double* posz,const typecode* code,const unsigned* idp
  ,const float3* boundnor,const float3* motionvel,float4* velrho
  ,const float3* motionace,float* boundonoff,const tfloat3 gravity)
{
  const unsigned p1=blockIdx.x*blockDim.x + threadIdx.x; //-Number of particle.
  if(p1<n){
    const float3 bnormalp1=boundnor[p1];
    if(bnormalp1.x!=0 || bnormalp1.y!=0 || bnormalp1.z!=0){
      float rhofinal=FLT_MAX;
      float3 velrhofinal=make_float3(0,0,0);
      float sumwab=0.0f;
      float submerged = 0.0f; //SHABA
      float minrho=1000.0f;


      //-Calculates ghost node position.
      double3 gposp1=make_double3(posxy[p1].x+bnormalp1.x,posxy[p1].y+bnormalp1.y,posz[p1]+bnormalp1.z);
      gposp1=(CTE.periactive!=0? KerUpdatePeriodicPos(gposp1): gposp1); //-Corrected interface Position.
      const float4 gpscellp1=KerComputePosCell(gposp1,mapposmin,poscellsize);

      //-Initializes variables for calculation.
      float rhop1=0;
      float3 gradrhop1=make_float3(0,0,0);
      float3 velp1=make_float3(0,0,0);                              // -Only for velocity
      tmatrix3f a_corr2; if(sim2d) cumath::Tmatrix3fReset(a_corr2); //-Only for 2D.
      tmatrix4f a_corr3; if(!sim2d)cumath::Tmatrix4fReset(a_corr3); //-Only for 3D.
    
      //-Obtains neighborhood search limits.
      int ini1,fin1,ini2,fin2,ini3,fin3;
      cunsearch::InitCte(gposp1.x,gposp1.y,gposp1.z,scelldiv,nc,cellzero,ini1,fin1,ini2,fin2,ini3,fin3);

      //-Boundary-Fluid interaction.
      for(int c3=ini3;c3<fin3;c3+=nc.w)for(int c2=ini2;c2<fin2;c2+=nc.x){
        unsigned pini,pfin=0;  cunsearch::ParticleRange(c2,c3,ini1,fin1,beginendcellfluid,pini,pfin);
        if(pfin)for(unsigned p2=pini;p2<pfin;p2++){
          const float4 pscellp2=poscell[p2];
          float drx=gpscellp1.x-pscellp2.x + CTE.poscellsize*(PSCEL_GetfX(gpscellp1.w)-PSCEL_GetfX(pscellp2.w));
          float dry=gpscellp1.y-pscellp2.y + CTE.poscellsize*(PSCEL_GetfY(gpscellp1.w)-PSCEL_GetfY(pscellp2.w));
          float drz=gpscellp1.z-pscellp2.z + CTE.poscellsize*(PSCEL_GetfZ(gpscellp1.w)-PSCEL_GetfZ(pscellp2.w));
          const float rr2=drx*drx+dry*dry+drz*drz;
          if(rr2<=CTE.kernelsize2 && CODE_IsFluid(code[p2])){//-Only with fluid particles (including inout).
            //-Computes kernel.
            float fac;
            const float wab=cufsph::GetKernel_WabFac<tker>(rr2,fac);
            const float frx=fac*drx,fry=fac*dry,frz=fac*drz; //-Gradients.

            //===== Get mass and volume of particle p2 =====
            const float4 velrhop2=velrho[p2];
            float massp2=CTE.massf;
            const float volp2=massp2/velrhop2.w;
            minrho=fminf(minrho,velrhop2.w);


            //===== Check if ghost node is submerged ===== SHABA
            submerged -= volp2 * (drx * frx + dry * fry + drz * frz);

            //===== Density and its gradient =====
            rhop1+=massp2*wab;
            gradrhop1.x+=massp2*frx;
            gradrhop1.y+=massp2*fry;
            gradrhop1.z+=massp2*frz;

            //===== Kernel values multiplied by volume =====
            const float vwab=wab*volp2;
            sumwab+=vwab;
            const float vfrx=frx*volp2;
            const float vfry=fry*volp2;
            const float vfrz=frz*volp2;

            //===== Velocity =====
            if(tslip!=SLIP_Vel0) {
              velp1.x+=vwab*velrhop2.x;
              velp1.y+=vwab*velrhop2.y;
              velp1.z+=vwab*velrhop2.z;
            }

            //===== Matrix A for correction =====
            if(sim2d){
              a_corr2.a11+=vwab;  a_corr2.a12+=drx*vwab;  a_corr2.a13+=drz*vwab;
              a_corr2.a21+=vfrx;  a_corr2.a22+=drx*vfrx;  a_corr2.a23+=drz*vfrx;
              a_corr2.a31+=vfrz;  a_corr2.a32+=drx*vfrz;  a_corr2.a33+=drz*vfrz;
            }
            else{
              a_corr3.a11+=vwab;  a_corr3.a12+=drx*vwab;  a_corr3.a13+=dry*vwab;  a_corr3.a14+=drz*vwab;
              a_corr3.a21+=vfrx;  a_corr3.a22+=drx*vfrx;  a_corr3.a23+=dry*vfrx;  a_corr3.a24+=drz*vfrx;
              a_corr3.a31+=vfry;  a_corr3.a32+=drx*vfry;  a_corr3.a33+=dry*vfry;  a_corr3.a34+=drz*vfry;
              a_corr3.a41+=vfrz;  a_corr3.a42+=drx*vfrz;  a_corr3.a43+=dry*vfrz;  a_corr3.a44+=drz*vfrz;
            }
          }
        }
      }

      //-Store the results.
      //--------------------
      if (submerged > 0.f) {
          //-Store the results.
          //--------------------
          //if (sumwab >= mdbcthreshold) {
          boundonoff[p1] = 1.0f;
          const float3 dpos = make_float3(-bnormalp1.x, -bnormalp1.y, -bnormalp1.z); //-Boundary particle position - ghost node position.
          if (sim2d) {
              if (sumwab < 0.1f) { // If kernel sum is small use shepherd density and vel0
                  // trying to avoid too negative pressures
                  const float rhoghost = max(CTE.rhopzero, float(rhop1 / a_corr2.a11));
                  // Clone particle proceedure
                  float pghost = float(CTE.cs0 * CTE.cs0 * (rhoghost - CTE.rhopzero));
                  float norm = sqrt(bnormalp1.x * bnormalp1.x + bnormalp1.z * bnormalp1.z);
                  float normx = bnormalp1.x / norm; float normz = bnormalp1.z / norm;
                  float normpos = dpos.x * normx + dpos.z * normz;
                  float3 force = make_float3(gravity.x - motionace[p1].x, 0, gravity.z - motionace[p1].z);
                  float normforce = CTE.rhopzero * (force.x * normx + force.z * normz);
                  float pressfinal = pghost + normforce * normpos;
                  // final values to be saved
                  rhofinal = CTE.rhopzero + float(pressfinal / (CTE.cs0 * CTE.cs0));
                  if (tslip != SLIP_Vel0) {
                      velrhofinal.x = float(velp1.x / a_corr2.a11);
                      velrhofinal.y = 0.f;
                      velrhofinal.z = float(velp1.z / a_corr2.a11);
                  }
              }
              else {// chech if matrix is invertible and well conditioned
                  const double determ = cumath::Determinant3x3dbl(a_corr2);
                  if (fabs(determ) >= 0.001) {//-Use 1e-3f (first_order) or 1e+3f (zeroth_order).
                      const tmatrix3f invacorr2 = cumath::InverseMatrix3x3dbl(a_corr2, determ);
                      // finding inifinity norm of matrix a
                      float row1 = float(fabs(a_corr2.a11) + fabs(a_corr2.a12) + fabs(a_corr2.a13));
                      float row2 = float(fabs(a_corr2.a21) + fabs(a_corr2.a22) + fabs(a_corr2.a23));
                      float row3 = float(fabs(a_corr2.a31) + fabs(a_corr2.a32) + fabs(a_corr2.a33));
                      const float infnorma = max(row1, max(row2, row3));
                      // finding infinity norm of matrix a inverse
                      float invrow1 = float(fabs(invacorr2.a11) + fabs(invacorr2.a12) + fabs(invacorr2.a13));
                      float invrow2 = float(fabs(invacorr2.a21) + fabs(invacorr2.a22) + fabs(invacorr2.a23));
                      float invrow3 = float(fabs(invacorr2.a31) + fabs(invacorr2.a32) + fabs(invacorr2.a33));
                      const float infnormainv = max(invrow1, max(invrow2, invrow3));
                      // calculate the scaled condition number
                      const float condinf = float(CTE.dp) * float(CTE.dp) * infnorma * infnormainv;
                      if (condinf <= 50.f) {// if matrix is well conditioned use matrix inverse for density and shepherd for velocity
                          // trying to avoid too negative pressure
                          const float rhoghost = max(CTE.rhopzero, float(invacorr2.a11 * rhop1 + invacorr2.a12 * gradrhop1.x + invacorr2.a13 * gradrhop1.z));
                          // clone particle proceedure
                          float pghost = float(CTE.cs0 * CTE.cs0 * (rhoghost - CTE.rhopzero));
                          float norm = sqrt(bnormalp1.x * bnormalp1.x + bnormalp1.z * bnormalp1.z);
                          float normx = bnormalp1.x / norm; float normz = bnormalp1.z / norm;
                          float normpos = dpos.x * normx + dpos.z * normz;
                          float3 force = make_float3(gravity.x - motionace[p1].x, 0, gravity.z - motionace[p1].z);
                          float normforce = CTE.rhopzero * (force.x * normx + force.z * normz);
                          float pressfinal = pghost + normforce * normpos;
                          // final values to be saved
                          rhofinal = CTE.rhopzero + float(pressfinal / (CTE.cs0 * CTE.cs0));
                          if (tslip != SLIP_Vel0) {
                              velrhofinal.x = float(velp1.x / a_corr2.a11);
                              velrhofinal.y = 0.f;
                              velrhofinal.z = float(velp1.z / a_corr2.a11);
                          }
                      }
                      else { // if ill conditioned use shepherd
                          // trying to avoid too negative pressures
                          const float rhoghost = max(CTE.rhopzero, float(rhop1 / a_corr2.a11));
                          // Clone particle proceedure
                          float pghost = float(CTE.cs0 * CTE.cs0 * (rhoghost - CTE.rhopzero));
                          float norm = sqrt(bnormalp1.x * bnormalp1.x + bnormalp1.z * bnormalp1.z);
                          float normx = bnormalp1.x / norm; float normz = bnormalp1.z / norm;
                          float normpos = dpos.x * normx + dpos.z * normz;
                          float3 force = make_float3(gravity.x - motionace[p1].x, 0, gravity.z - motionace[p1].z);
                          float normforce = CTE.rhopzero * (force.x * normx + force.z * normz);
                          float pressfinal = pghost + normforce * normpos;
                          // final values to be saved
                          rhofinal = CTE.rhopzero + float(pressfinal / (CTE.cs0 * CTE.cs0));
                          if (tslip != SLIP_Vel0) {
                              velrhofinal.x = float(velp1.x / a_corr2.a11);
                              velrhofinal.y = 0.f;
                              velrhofinal.z = float(velp1.z / a_corr2.a11);
                          }
                      }
                  }
                  else {// if not invertible use shepherd
                      // trying to avoid too negative pressures
                      const float rhoghost = max(CTE.rhopzero, float(rhop1 / a_corr2.a11));
                      // Clone particle proceedure
                      float pghost = float(CTE.cs0 * CTE.cs0 * (rhoghost - CTE.rhopzero));
                      float norm = sqrt(bnormalp1.x * bnormalp1.x + bnormalp1.z * bnormalp1.z);
                      float normx = bnormalp1.x / norm; float normz = bnormalp1.z / norm;
                      float normpos = dpos.x * normx + dpos.z * normz;
                      float3 force = make_float3(gravity.x - motionace[p1].x, 0, gravity.z - motionace[p1].z);
                      float normforce = CTE.rhopzero * (force.x * normx + force.z * normz);
                      float pressfinal = pghost + normforce * normpos;
                      // final values to be saved
                      rhofinal = CTE.rhopzero + float(pressfinal / (CTE.cs0 * CTE.cs0));
                      if (tslip != SLIP_Vel0) {
                          velrhofinal.x = float(velp1.x / a_corr2.a11);
                          velrhofinal.y = 0.f;
                          velrhofinal.z = float(velp1.z / a_corr2.a11);
                      }
                  }
              }
          }
          else {
              if (sumwab < 0.1f) { // If kernel sum is small use shepherd density and vel0
                  // trying to avoid too negative pressures
                  const float rhoghost = max(CTE.rhopzero, float(rhop1 / a_corr3.a11));
                  // Clone particle proceedure
                  float pghost = float(CTE.cs0 * CTE.cs0 * (rhoghost - CTE.rhopzero));
                  float norm = sqrt(bnormalp1.x * bnormalp1.x + bnormalp1.y * bnormalp1.y + bnormalp1.z * bnormalp1.z);
                  float normx = bnormalp1.x / norm; float normy = bnormalp1.y / norm; float normz = bnormalp1.z / norm;
                  float normpos = dpos.x * normx + dpos.y * normy + dpos.z * normz;
                  float3 force = make_float3(gravity.x - motionace[p1].x, gravity.y - motionace[p1].y, gravity.z - motionace[p1].z);
                  float normforce = CTE.rhopzero * (force.x * normx + force.y * normy + force.z * normz);
                  float pressfinal = pghost + normforce * normpos;
                  // final values to be saved
                  rhofinal = CTE.rhopzero + float(pressfinal / (CTE.cs0 * CTE.cs0));
                  if (tslip != SLIP_Vel0) {
                      velrhofinal.x = float(velp1.x / a_corr3.a11);
                      velrhofinal.y = float(velp1.y / a_corr3.a11);
                      velrhofinal.z = float(velp1.z / a_corr3.a11);
                  }
              }
              else {
                  const double determ = cumath::Determinant4x4dbl(a_corr3);
                  if (fabs(determ) >= 0.001) {
                      const tmatrix4f invacorr3 = cumath::InverseMatrix4x4dbl(a_corr3, determ);
                      // finding inifinity norm of matrix a
                      float row1 = float(fabs(a_corr3.a11) + fabs(a_corr3.a12) + fabs(a_corr3.a13) + fabs(a_corr3.a14));
                      float row2 = float(fabs(a_corr3.a21) + fabs(a_corr3.a22) + fabs(a_corr3.a23) + fabs(a_corr3.a24));
                      float row3 = float(fabs(a_corr3.a31) + fabs(a_corr3.a32) + fabs(a_corr3.a33) + fabs(a_corr3.a34));
                      float row4 = float(fabs(a_corr3.a41) + fabs(a_corr3.a42) + fabs(a_corr3.a43) + fabs(a_corr3.a44));
                      const float infnorma = max(row1, max(row2, max(row3, row4)));
                      // finding infinity norm of matrix a inverse
                      float invrow1 = float(fabs(invacorr3.a11) + fabs(invacorr3.a12) + fabs(invacorr3.a13) + fabs(invacorr3.a14));
                      float invrow2 = float(fabs(invacorr3.a21) + fabs(invacorr3.a22) + fabs(invacorr3.a23) + fabs(invacorr3.a24));
                      float invrow3 = float(fabs(invacorr3.a31) + fabs(invacorr3.a32) + fabs(invacorr3.a33) + fabs(invacorr3.a34));
                      float invrow4 = float(fabs(invacorr3.a41) + fabs(invacorr3.a42) + fabs(invacorr3.a43) + fabs(invacorr3.a44));
                      const float infnormainv = max(invrow1, max(invrow2, max(invrow3, invrow4)));
                      // calculate the scaled condition number
                      const float condinf = float(CTE.dp) * float(CTE.dp) * infnorma * infnormainv;
                      if (condinf <= 50.f) { // if matrix is well conditioned use matrix inverse for density and shepherd for velocity
                          // trying to avoid too negative pressure
                          const float rhoghost = max(CTE.rhopzero, float(invacorr3.a11 * rhop1 + invacorr3.a12 * gradrhop1.x + invacorr3.a13 * gradrhop1.y + invacorr3.a14 * gradrhop1.z));
                          // clone particle proceedure
                          float pghost = float(CTE.cs0 * CTE.cs0 * (rhoghost - CTE.rhopzero));
                          float norm = sqrt(bnormalp1.x * bnormalp1.x + bnormalp1.y * bnormalp1.y + bnormalp1.z * bnormalp1.z);
                          float normx = bnormalp1.x / norm; float normy = bnormalp1.y / norm; float normz = bnormalp1.z / norm;
                          float normpos = dpos.x * normx + dpos.y * normy + dpos.z * normz;
                          float3 force = make_float3(gravity.x - motionace[p1].x, gravity.y - motionace[p1].y, gravity.z - motionace[p1].z);
                          float normforce = CTE.rhopzero * (force.x * normx + force.y * normy + force.z * normz);
                          float pressfinal = pghost + normforce * normpos;
                          // final values to be saved
                          rhofinal = CTE.rhopzero + float(pressfinal / (CTE.cs0 * CTE.cs0));
                          if (tslip != SLIP_Vel0) {
                              velrhofinal.x = float(velp1.x / a_corr3.a11);
                              velrhofinal.y = float(velp1.y / a_corr3.a11);
                              velrhofinal.z = float(velp1.z / a_corr3.a11);
                          }
                      }
                      else { // matrix is not well conditioned, use shepherd for pressure and velocity
                          // trying to avoid too negative pressure
                          const float rhoghost = max(CTE.rhopzero, float(rhop1 / a_corr3.a11));
                          // clone particle proceedure
                          float pghost = float(CTE.cs0 * CTE.cs0 * (rhoghost - CTE.rhopzero));
                          float norm = sqrt(bnormalp1.x * bnormalp1.x + bnormalp1.y * bnormalp1.y + bnormalp1.z * bnormalp1.z);
                          float normx = bnormalp1.x / norm; float normy = bnormalp1.y / norm; float normz = bnormalp1.z / norm;
                          float normpos = dpos.x * normx + dpos.y * normy + dpos.z * normz;
                          float3 force = make_float3(gravity.x - motionace[p1].x, gravity.y - motionace[p1].y, gravity.z - motionace[p1].z);
                          float normforce = CTE.rhopzero * (force.x * normx + force.y * normy + force.z * normz);
                          float pressfinal = pghost + normforce * normpos;
                          // final value to be saved
                          rhofinal = CTE.rhopzero + float(pressfinal / (CTE.cs0 * CTE.cs0));
                          if (tslip != SLIP_Vel0) {
                              velrhofinal.x = float(velp1.x / a_corr3.a11);
                              velrhofinal.y = float(velp1.y / a_corr3.a11);
                              velrhofinal.z = float(velp1.z / a_corr3.a11);
                          }
                      }
                  }
                  else { // matrix is not invertible use shepherd for density and velocity
                      // trying to avoid too negative pressure
                      const float rhoghost = max(CTE.rhopzero, float(rhop1 / a_corr3.a11));
                      // clone particle proceedure
                      float pghost = float(CTE.cs0 * CTE.cs0 * (rhoghost - CTE.rhopzero));
                      float norm = sqrt(bnormalp1.x * bnormalp1.x + bnormalp1.y * bnormalp1.y + bnormalp1.z * bnormalp1.z);
                      float normx = bnormalp1.x / norm; float normy = bnormalp1.y / norm; float normz = bnormalp1.z / norm;
                      float normpos = dpos.x * normx + dpos.y * normy + dpos.z * normz;
                      float3 force = make_float3(gravity.x - motionace[p1].x, gravity.y - motionace[p1].y, gravity.z - motionace[p1].z);
                      float normforce = CTE.rhopzero * (force.x * normx + force.y * normy + force.z * normz);
                      float pressfinal = pghost + normforce * normpos;
                      // final values to be saved
                      rhofinal = CTE.rhopzero + float(pressfinal / (CTE.cs0 * CTE.cs0));
                      if (tslip != SLIP_Vel0) {
                          velrhofinal.x = float(velp1.x / a_corr3.a11);
                          velrhofinal.y = float(velp1.y / a_corr3.a11);
                          velrhofinal.z = float(velp1.z / a_corr3.a11);
                      }
                  }
              }
          }
          //-Store the results.
          rhofinal = (rhofinal != FLT_MAX ? rhofinal : CTE.rhopzero);
          if (tslip == SLIP_Vel0) {//-DBC vel=0
              velrho[p1].w = rhofinal;
          }
          if (tslip == SLIP_NoSlip) {//-No-Slip
              const float3 v = motionvel[p1];
              velrho[p1] = make_float4(v.x + v.x - velrhofinal.x, v.y + v.y - velrhofinal.y, v.z + v.z - velrhofinal.z, rhofinal);
          }
          if (tslip == SLIP_FreeSlip) {//-No-Penetration and free slip    SHABA
              float3 FSVelFinal; // final free slip boundary velocity
              const float3 v = motionvel[p1];
              float motion = sqrt(v.x * v.x + v.y * v.y + v.z * v.z); // to check if boundary moving
              float norm = sqrt(bnormalp1.x * bnormalp1.x + bnormalp1.y * bnormalp1.y + bnormalp1.z * bnormalp1.z);
              float3 normal; // creating a normailsed boundary normal
              normal.x = fabs(bnormalp1.x) / norm; normal.y = fabs(bnormalp1.y) / norm; normal.z = fabs(bnormalp1.z) / norm;

              // finding the velocity componants normal and tangential to boundary 
              float3 normvel = make_float3(velrhofinal.x * normal.x, velrhofinal.y * normal.y, velrhofinal.z * normal.z); // velocity in direction of normal pointin ginto fluid)
              float3 tangvel = make_float3(velrhofinal.x - normvel.x, velrhofinal.y - normvel.y, velrhofinal.z - normvel.z); // velocity tangential to normal

              if (motion > 0) { // if moving boundary
                  float3 normmot = make_float3(v.x * normal.x, v.y * normal.y, v.z * normal.z); // boundary motion in direction normal to boundary 
                  FSVelFinal = make_float3(normmot.x + normmot.x - normvel.x, normmot.y + normmot.y - normvel.y, normmot.z + normmot.z - normvel.z);
                  // only velocity in normal direction for no-penetration
                  // fluid sees zero velocity in the tangetial direction
              }
              else {
                  FSVelFinal = make_float3(tangvel.x - normvel.x, tangvel.y - normvel.y, tangvel.z - normvel.z);
                  // tangential velocity equal to fluid velocity for free slip
                  // normal velocity reversed for no-penetration
              }

              // Save the velocity and density
              velrho[p1] = make_float4(FSVelFinal.x, FSVelFinal.y, FSVelFinal.z, rhofinal);
          }
          //}
      }
      else { // if unsubmerged switch off boundary particle
          boundonoff[p1] = 0.0f;
          const float3 v = motionvel[p1];
          velrho[p1] = make_float4(v.x, v.y, v.z, CTE.rhopzero);
      }
    }
  }
}

//------------------------------------------------------------------------------
/// Perform interaction between ghost node of selected bondary and fluid.
//------------------------------------------------------------------------------
template<TpKernel tker,bool sim2d,TpSlipMode tslip>
  __global__ void KerInteractionMdbcCorrection_Dbl
  (unsigned n,unsigned nbound,float determlimit,float mdbcthreshold
  ,int scelldiv,int4 nc,int3 cellzero,const int2* beginendcellfluid
  ,const double2* posxy,const double* posz,const typecode* code,const unsigned* idp
  ,const float3* boundnor,const float3* motionvel,float4* velrho
  ,const float3* motionace,float* boundonoff,const tfloat3 gravity)
{
  const unsigned p1=blockIdx.x*blockDim.x + threadIdx.x; //-Number of particle.
  if(p1<n){
    const float3 bnormalp1=boundnor[p1];
    if(bnormalp1.x!=0 || bnormalp1.y!=0 || bnormalp1.z!=0){
      float rhofinal=FLT_MAX;
      float3 velrhofinal=make_float3(0,0,0);
      float sumwab=0;
      float submerged = 0; // SHABA


      //-Calculates ghost node position.
      double3 gposp1=make_double3(posxy[p1].x+bnormalp1.x,posxy[p1].y+bnormalp1.y,posz[p1]+bnormalp1.z);
      gposp1=(CTE.periactive!=0? KerUpdatePeriodicPos(gposp1): gposp1); //-Corrected interface Position.
      //-Initializes variables for calculation.
      float rhop1=0;
      float3 gradrhop1=make_float3(0,0,0);
      float3 velp1=make_float3(0,0,0);                              // -Only for velocity
      tmatrix3d a_corr2; if(sim2d) cumath::Tmatrix3dReset(a_corr2); //-Only for 2D.
      tmatrix4d a_corr3; if(!sim2d)cumath::Tmatrix4dReset(a_corr3); //-Only for 3D.
    
      //-Obtains neighborhood search limits.
      int ini1,fin1,ini2,fin2,ini3,fin3;
      cunsearch::InitCte(gposp1.x,gposp1.y,gposp1.z,scelldiv,nc,cellzero,ini1,fin1,ini2,fin2,ini3,fin3);

      //-Boundary-Fluid interaction.
      for(int c3=ini3;c3<fin3;c3+=nc.w)for(int c2=ini2;c2<fin2;c2+=nc.x){
        unsigned pini,pfin=0;  cunsearch::ParticleRange(c2,c3,ini1,fin1,beginendcellfluid,pini,pfin);
        if(pfin)for(unsigned p2=pini;p2<pfin;p2++){
          const double2 p2xy=posxy[p2];
          const float drx=float(gposp1.x-p2xy.x);
          const float dry=float(gposp1.y-p2xy.y);
          const float drz=float(gposp1.z-posz[p2]);
          const float rr2=drx*drx+dry*dry+drz*drz;
          if(rr2<=CTE.kernelsize2 && CODE_IsFluid(code[p2])){//-Only with fluid particles (including inout).
            //-Computes kernel.
            float fac;
            const float wab=cufsph::GetKernel_WabFac<tker>(rr2,fac);
            const float frx=fac*drx,fry=fac*dry,frz=fac*drz; //-Gradients.

            //===== Get mass and volume of particle p2 =====
            const float4 velrhop2=velrho[p2];
            float massp2=CTE.massf;
            const float volp2=massp2/velrhop2.w;


            //===== Check if ghost node is submerged ===== SHABA
            submerged -= volp2 * (drx * frx + dry * fry + drz * frz);

            //===== Density and its gradient =====
            rhop1+=massp2*wab;
            gradrhop1.x+=massp2*frx;
            gradrhop1.y+=massp2*fry;
            gradrhop1.z+=massp2*frz;

            //===== Kernel values multiplied by volume =====
            const float vwab=wab*volp2;
            sumwab+=vwab;
            const float vfrx=frx*volp2;
            const float vfry=fry*volp2;
            const float vfrz=frz*volp2;

            //===== Velocity =====
            if(tslip!=SLIP_Vel0) {
              velp1.x+=vwab*velrhop2.x;
              velp1.y+=vwab*velrhop2.y;
              velp1.z+=vwab*velrhop2.z;
            }

            //===== Matrix A for correction =====
            if(sim2d){
              a_corr2.a11+=vwab;  a_corr2.a12+=drx*vwab;  a_corr2.a13+=drz*vwab;
              a_corr2.a21+=vfrx;  a_corr2.a22+=drx*vfrx;  a_corr2.a23+=drz*vfrx;
              a_corr2.a31+=vfrz;  a_corr2.a32+=drx*vfrz;  a_corr2.a33+=drz*vfrz;
            }
            else{
              a_corr3.a11+=vwab;  a_corr3.a12+=drx*vwab;  a_corr3.a13+=dry*vwab;  a_corr3.a14+=drz*vwab;
              a_corr3.a21+=vfrx;  a_corr3.a22+=drx*vfrx;  a_corr3.a23+=dry*vfrx;  a_corr3.a24+=drz*vfrx;
              a_corr3.a31+=vfry;  a_corr3.a32+=drx*vfry;  a_corr3.a33+=dry*vfry;  a_corr3.a34+=drz*vfry;
              a_corr3.a41+=vfrz;  a_corr3.a42+=drx*vfrz;  a_corr3.a43+=dry*vfrz;  a_corr3.a44+=drz*vfrz;
            }
          }
        }
      }

    //-Store the results.
      //--------------------
      if (submerged > 0.f) {
          //-Store the results.
          //--------------------
          //if (sumwab >= mdbcthreshold) {
          boundonoff[p1] = 1.0f;
          const float3 dpos = make_float3(-bnormalp1.x, -bnormalp1.y, -bnormalp1.z); //-Boundary particle position - ghost node position.
          if (sim2d) {
              if (sumwab < 0.1f) { // If kernel sum is small use shepherd density and vel0
                  // trying to avoid too negative pressures
                  const float rhoghost = max(CTE.rhopzero, float(rhop1 / a_corr2.a11));
                  // Clone particle proceedure
                  float pghost = float(CTE.cs0 * CTE.cs0 * (rhoghost - CTE.rhopzero));
                  float norm = sqrt(bnormalp1.x * bnormalp1.x + bnormalp1.z * bnormalp1.z);
                  float normx = bnormalp1.x / norm; float normz = bnormalp1.z / norm;
                  float normpos = dpos.x * normx + dpos.z * normz;
                  float3 force = make_float3(gravity.x - motionace[p1].x, 0, gravity.z - motionace[p1].z);
                  float normforce = CTE.rhopzero * (force.x * normx + force.z * normz);
                  float pressfinal = pghost + normforce * normpos;
                  // final values to be saved
                  rhofinal = CTE.rhopzero + float(pressfinal / (CTE.cs0 * CTE.cs0));
                  if (tslip != SLIP_Vel0) {
                      velrhofinal.x = float(velp1.x / a_corr2.a11);
                      velrhofinal.y = 0.f;
                      velrhofinal.z = float(velp1.z / a_corr2.a11);
                  }
              }
              else {// chech if matrix is invertible and well conditioned
                  const double determ = cumath::Determinant3x3(a_corr2);
                  if (fabs(determ) >= 0.001) {//-Use 1e-3f (first_order) or 1e+3f (zeroth_order).
                      const tmatrix3d invacorr2 = cumath::InverseMatrix3x3(a_corr2, determ);
                      // finding inifinity norm of matrix a
                      float row1 = float(fabs(a_corr2.a11) + fabs(a_corr2.a12) + fabs(a_corr2.a13));
                      float row2 = float(fabs(a_corr2.a21) + fabs(a_corr2.a22) + fabs(a_corr2.a23));
                      float row3 = float(fabs(a_corr2.a31) + fabs(a_corr2.a32) + fabs(a_corr2.a33));
                      const float infnorma = max(row1, max(row2, row3));
                      // finding infinity norm of matrix a inverse
                      float invrow1 = float(fabs(invacorr2.a11) + fabs(invacorr2.a12) + fabs(invacorr2.a13));
                      float invrow2 = float(fabs(invacorr2.a21) + fabs(invacorr2.a22) + fabs(invacorr2.a23));
                      float invrow3 = float(fabs(invacorr2.a31) + fabs(invacorr2.a32) + fabs(invacorr2.a33));
                      const float infnormainv = max(invrow1, max(invrow2, invrow3));
                      // calculate the scaled condition number
[...]
          const double fdis=(vdis>=dist? 1.: vdis/dist);
          const double redudt=dt*(fdis*fdis)*redumax;
          double redudtx=(1.-redudt*factorxyz.x);
          double redudty=(1.-redudt*factorxyz.y);
          double redudtz=(1.-redudt*factorxyz.z);
          redudtx=(redudtx<0? 0.: redudtx);
          redudty=(redudty<0? 0.: redudty);
          redudtz=(redudtz<0? 0.: redudtz);
          float4 rvel=velrho[p1];
          rvel.x=float(redudtx*rvel.x); 
          rvel.y=float(redudty*rvel.y); 
          rvel.z=float(redudtz*rvel.z); 
          velrho[p1]=rvel;
        }
      }
    }
  }
}
//==============================================================================
/// Applies Damping to limited domain.
/// Aplica Damping limitado a un dominio.
//==============================================================================
void ComputeDampingPlaneDom(double dt,double4 plane,float dist,float over
  ,float3 factorxyz,float redumax
  ,double zmin,double zmax,double4 pla0,double4 pla1,double4 pla2,double4 pla3
  ,unsigned n,unsigned pini,const double2* posxy,const double* posz
  ,const typecode* code,float4* velrho)
{
  if(n){
    dim3 sgridf=GetSimpleGridSize(n,SPHBSIZE);
    KerComputeDampingPlaneDom <<<sgridf,SPHBSIZE>>> (n,pini,dt,plane,dist,over,factorxyz
      ,redumax,zmin,zmax,pla0,pla1,pla2,pla3,posxy,posz,code,velrho);
  }
}


//------------------------------------------------------------------------------
/// Applies Damping according box configuration.
/// Aplica Damping segun cofiguracion de caja.
//------------------------------------------------------------------------------
__global__ void KerComputeDampingBox(unsigned n,unsigned pini
  ,double dt,float3 factorxyz,float redumax
  ,double3 limitmin1,double3 limitmin2,double3 limitmax1,double3 limitmax2
  ,double3 limitover1,double3 limitover2,double3 boxsize1,double3 boxsize2
  ,const double2* posxy,const double* posz,const typecode* code
  ,float4* velrho)
{
  unsigned p=blockIdx.x*blockDim.x + threadIdx.x; //-Number of particle.
  if(p<n){
    const unsigned p1=p+pini;
    const bool ok=KerIsNormalFluid(code,p1);//-Ignore floating and periodic particles. | Descarta particulas floating o periodicas.
    if(ok){
      const double2 rposxy=posxy[p1];
      const double rposz=posz[p1];
      //-Check if it is within the domain. | Comprueba si esta dentro del dominio.
      if(KerPointInBox(rposxy.x,rposxy.y,rposz,limitover1,limitover2)){//-Inside overlimit domain.
        if(!KerPointInBox(rposxy.x,rposxy.y,rposz,limitmin1,limitmin2)){//-Outside free domain.
          double fdis=1.;
          if(KerPointInBox(rposxy.x,rposxy.y,rposz,limitmax1,limitmax2)){//-Compute damping coefficient.
            fdis=0;
            if(boxsize2.z){ const double fdiss=(rposz   -limitmin2.z)/boxsize2.z; fdis=(fdis>=fdiss? fdis: fdiss); }
            if(boxsize2.y){ const double fdiss=(rposxy.y-limitmin2.y)/boxsize2.y; fdis=(fdis>=fdiss? fdis: fdiss); }
            if(boxsize2.x){ const double fdiss=(rposxy.x-limitmin2.x)/boxsize2.x; fdis=(fdis>=fdiss? fdis: fdiss); }
            if(boxsize1.z){ const double fdiss=(limitmin1.z-rposz   )/boxsize1.z; fdis=(fdis>=fdiss? fdis: fdiss); }
            if(boxsize1.y){ const double fdiss=(limitmin1.y-rposxy.y)/boxsize1.y; fdis=(fdis>=fdiss? fdis: fdiss); }
            if(boxsize1.x){ const double fdiss=(limitmin1.x-rposxy.x)/boxsize1.x; fdis=(fdis>=fdiss? fdis: fdiss); }
          }
          const double redudt=dt*(fdis*fdis)*redumax;
          double redudtx=(1.-redudt*factorxyz.x);
          double redudty=(1.-redudt*factorxyz.y);
          double redudtz=(1.-redudt*factorxyz.z);
          redudtx=(redudtx<0? 0.: redudtx);
          redudty=(redudty<0? 0.: redudty);
          redudtz=(redudtz<0? 0.: redudtz);
          float4 rvel=velrho[p1];
          rvel.x=float(redudtx*rvel.x); 
          rvel.y=float(redudty*rvel.y); 
          rvel.z=float(redudtz*rvel.z);
          //rvel.x=rvel.y=rvel.z=0;
          velrho[p1]=rvel;
        }
      }
    }
  }
}
//==============================================================================
/// Applies Damping according box configuration.
/// Aplica Damping segun cofiguracion de caja.
//==============================================================================
void ComputeDampingBox(unsigned n,unsigned pini,double dt,float3 factorxyz,float redumax
  ,double3 limitmin1,double3 limitmin2,double3 limitmax1,double3 limitmax2
  ,double3 limitover1,double3 limitover2,double3 boxsize1,double3 boxsize2
  ,const double2* posxy,const double* posz,const typecode* code,float4* velrho)
{
  if(n){
    dim3 sgridf=GetSimpleGridSize(n,SPHBSIZE);
    KerComputeDampingBox <<<sgridf,SPHBSIZE>>> (n,pini,dt,factorxyz,redumax
      ,limitmin1,limitmin2,limitmax1,limitmax2,limitover1,limitover2,boxsize1,boxsize2
      ,posxy,posz,code,velrho);
  }
}


//------------------------------------------------------------------------------
/// Applies Damping to limited cylinder domain.
/// Aplica Damping limitado a un dominio de cilindro.
//------------------------------------------------------------------------------
__global__ void KerComputeDampingCylinder(unsigned n,unsigned pini
  ,double dt,bool isvertical,double3 point1,double3 point2,double limitmin
  ,float dist,float over,float3 factorxyz,float redumax
  ,const double2* posxy,const double* posz,const typecode* code
  ,float4* velrho)
{
  unsigned p=blockIdx.x*blockDim.x + threadIdx.x; //-Number of particle.
  if(p<n){
    const unsigned p1=p+pini;
    const bool ok=KerIsNormalFluid(code,p1);//-Ignore floating and periodic particles. | Descarta particulas floating o periodicas.
    if(ok){
      //-Check if it is within the domain. | Comprueba si esta dentro del dominio.
      const double2 rposxy=posxy[p1];
      const double rposz=posz[p1];
      const double3 ps=make_double3(rposxy.x,rposxy.y,rposz);
      const double vdis=(isvertical? 
        sqrt((ps.x-point1.x)*(ps.x-point1.x)+(ps.y-point1.y)*(ps.y-point1.y)): 
        cugeo::LinePointDist(ps,point1,point2)
        ) - limitmin;
      if(0<vdis && vdis<=dist+over){
        const double fdis=(vdis>=dist? 1.: vdis/dist);
        const double redudt=dt*(fdis*fdis)*redumax;
        double redudtx=(1.-redudt*factorxyz.x);
        double redudty=(1.-redudt*factorxyz.y);
        double redudtz=(1.-redudt*factorxyz.z);
        redudtx=(redudtx<0? 0.: redudtx);
        redudty=(redudty<0? 0.: redudty);
        redudtz=(redudtz<0? 0.: redudtz);
        float4 rvel=velrho[p1];
        rvel.x=float(redudtx*rvel.x); 
        rvel.y=float(redudty*rvel.y); 
        rvel.z=float(redudtz*rvel.z); 
        velrho[p1]=rvel;
      }
    }
  }
}
//==============================================================================
/// Applies Damping to limited cylinder domain.
/// Aplica Damping limitado a un dominio de cilindro.
//==============================================================================
void ComputeDampingCylinder(unsigned n,unsigned pini
  ,double dt,double3 point1,double3 point2,double limitmin
  ,float dist,float over,float3 factorxyz,float redumax
  ,const double2* posxy,const double* posz,const typecode* code
  ,float4* velrho)
{
  if(n){
    const bool isvertical=(point1.x==point2.x && point1.y==point2.y);
    dim3 sgridf=GetSimpleGridSize(n,SPHBSIZE);
    KerComputeDampingCylinder <<<sgridf,SPHBSIZE>>> (n,pini,dt
      ,isvertical,point1,point2,limitmin,dist,over,factorxyz,redumax
      ,posxy,posz,code,velrho);
  }
}

 //<vs_outpaarts_ini>
//##############################################################################
//# Kernels for OutputParts.
//##############################################################################
//------------------------------------------------------------------------------
/// Compute filter for particles.
//------------------------------------------------------------------------------
__global__ void KerComputeOutputPartsInit(unsigned n,unsigned pini
  ,byte resmask,bool selall,byte* sel)
{
  unsigned pp=blockIdx.x*blockDim.x + threadIdx.x; //-Number of particle.
  if(pp<n){
    const unsigned p=pp+pini;
    byte psel=sel[p];
    sel[p]=(selall? psel|resmask: psel&(~resmask));
  }
}
//==============================================================================
/// Compute filter for particles.
//==============================================================================
void ComputeOutputPartsInit(byte resmask,bool selall,unsigned n,unsigned pini
  ,byte* sel)
{
  if(n){
    dim3 sgrid=GetSimpleGridSize(n,SPHBSIZE);
    KerComputeOutputPartsInit <<<sgrid,SPHBSIZE>>> (n,pini,resmask,selall,sel);
  }
}

//------------------------------------------------------------------------------
/// Compute filter for particles.
//------------------------------------------------------------------------------
__global__ void KerComputeOutputPartsGroup(unsigned n,unsigned pini
  ,byte resmask,byte resprev,bool cmband,bool inverse,byte* sel)
{
  unsigned pp=blockIdx.x*blockDim.x + threadIdx.x; //-Number of particle.
  if(pp<n){
    const unsigned p=pp+pini;
    byte psel=sel[p];
    bool r=((psel&resprev)!=0);  //-lv=0
    bool ok=((psel&resmask)!=0); //-lv+1
    if(inverse)ok=!ok;
    r=(cmband? r&&ok: r||ok);
    psel=psel&(~resprev);
    if(r)psel=psel|resprev;
    sel[p]=psel;
  }
}
//==============================================================================
/// Compute filter for particles.
//==============================================================================
void ComputeOutputPartsGroup(byte resmask,byte resprev,bool cmband,bool inverse
  ,unsigned n,unsigned pini,byte* sel)
{
  if(n){
    dim3 sgrid=GetSimpleGridSize(n,SPHBSIZE);
    KerComputeOutputPartsGroup <<<sgrid,SPHBSIZE>>> (n,pini,resmask,resprev,cmband,inverse,sel);
  }
}

//------------------------------------------------------------------------------
/// Compute filter for particles.
//------------------------------------------------------------------------------
__global__ void KerComputeOutputPartsPos(unsigned n,unsigned pini
  ,byte resmask,bool cmband,bool inverse,double3 pmin,double3 pmax
  ,const double2* posxy,const double* posz,byte* sel)
{
  unsigned pp=blockIdx.x*blockDim.x + threadIdx.x; //-Number of particle.
  if(pp<n){
    const unsigned p=pp+pini;
    byte psel=sel[p];
    bool r=((psel&resmask)!=0);
    if(r==cmband){ //if((r && cmband) || (!r && !cmband)){
      const double2 rposxy=posxy[p];
      const double rposz=posz[p];
      bool ok=(pmin.x<=rposxy.x && rposxy.x <=pmax.x &&
               pmin.z<=rposz    && rposz    <=pmax.z &&
               pmin.y<=rposxy.y && rposxy.y <=pmax.y);
      if(inverse)ok=!ok;
      r=(cmband? r&&ok: r||ok);
      psel=psel&(~resmask);
      if(r)psel=psel|resmask;
      sel[p]=psel;
    }
  }
}
//==============================================================================
/// Compute filter for particles.
//==============================================================================
void ComputeOutputPartsPos(byte resmask,bool cmband,bool inverse
  ,double3 pmin,double3 pmax,unsigned n,unsigned pini
  ,const double2* posxy,const double* posz,byte* sel)
{
  if(n){
    dim3 sgrid=GetSimpleGridSize(n,SPHBSIZE);
    KerComputeOutputPartsPos <<<sgrid,SPHBSIZE>>> (n,pini,resmask,cmband,inverse
      ,pmin,pmax,posxy,posz,sel);
  }
}

//------------------------------------------------------------------------------
/// Compute filter for particles.
//------------------------------------------------------------------------------
__global__ void KerComputeOutputPartsPlane(unsigned n,unsigned pini
  ,byte resmask,bool cmband,bool inverse,double4 plane,float maxdist
  ,const double2* posxy,const double* posz,byte* sel)
{
  unsigned pp=blockIdx.x*blockDim.x + threadIdx.x; //-Number of particle.
  if(pp<n){
    const unsigned p=pp+pini;
    byte psel=sel[p];
    bool r=((psel&resmask)!=0);
    if(r==cmband){ //if((r && cmband) || (!r && !cmband)){
      const double2 rposxy=posxy[p];
      const double rposz=posz[p];
      const double dist=KerPointPlane(plane,rposxy.x,rposxy.y,rposz);  //fgeo::PlanePoint(plane,ps);
      bool ok=(dist>=0 && dist<=maxdist);
      if(inverse)ok=!ok;
      r=(cmband? r&&ok: r||ok);
      psel=psel&(~resmask);
      if(r)psel=psel|resmask;
      sel[p]=psel;
    }
  }
}
//==============================================================================
/// Compute filter for particles.
//==============================================================================
void ComputeOutputPartsPlane(byte resmask,bool cmband,bool inverse
  ,double4 plane,float maxdist,unsigned n,unsigned pini
  ,const double2* posxy,const double* posz,byte* sel)
{
  if(n){
    dim3 sgrid=GetSimpleGridSize(n,SPHBSIZE);
    KerComputeOutputPartsPlane <<<sgrid,SPHBSIZE>>> (n,pini,resmask,cmband,inverse
      ,plane,maxdist,posxy,posz,sel);
  }
}

//------------------------------------------------------------------------------
/// Compute filter for particles.
//------------------------------------------------------------------------------
__global__ void KerComputeOutputPartsSphere(unsigned n,unsigned pini
  ,byte resmask,bool cmband,bool inverse,double3 pcen,float radius2
  ,const double2* posxy,const double* posz,byte* sel)
{
  unsigned pp=blockIdx.x*blockDim.x + threadIdx.x; //-Number of particle.
  if(pp<n){
    const unsigned p=pp+pini;
    byte psel=sel[p];
    bool r=((psel&resmask)!=0);
    if(r==cmband){ //if((r && cmband) || (!r && !cmband)){
      const double2 rposxy=posxy[p];
      const double rposz=posz[p];
      const float dx=float(pcen.x-rposxy.x);
      const float dy=float(pcen.y-rposxy.y);
      const float dz=float(pcen.z-rposz);
      bool ok=(dx*dx+dy*dy+dz*dz <= radius2);
      if(inverse)ok=!ok;
      r=(cmband? r&&ok: r||ok);
      psel=psel&(~resmask);
      if(r)psel=psel|resmask;
      sel[p]=psel;
    }
  }
}
//==============================================================================
/// Compute filter for particles.
//==============================================================================
void ComputeOutputPartsSphere(byte resmask,bool cmband,bool inverse
  ,double3 pcen,float radius2,unsigned n,unsigned pini
  ,const double2* posxy,const double* posz,byte* sel)
{
  if(n){
    dim3 sgrid=GetSimpleGridSize(n,SPHBSIZE);
    KerComputeOutputPartsSphere <<<sgrid,SPHBSIZE>>> (n,pini,resmask,cmband,inverse
      ,pcen,radius2,posxy,posz,sel);
  }
}


//------------------------------------------------------------------------------
/// Compute filter for particles.
//------------------------------------------------------------------------------
template<bool isvertical> __global__ void KerComputeOutputPartsCylinder(unsigned n
  ,unsigned pini,byte resmask,bool cmband,bool inverse
  ,double4 plane,float maxdist,double3 pcen1,double3 pcen2,float radius
  ,const double2* posxy,const double* posz,byte* sel)
{
  unsigned pp=blockIdx.x*blockDim.x + threadIdx.x; //-Number of particle.
  if(pp<n){
    const unsigned p=pp+pini;
    byte psel=sel[p];
    bool r=((psel&resmask)!=0);
    if(r==cmband){ //if((r && cmband) || (!r && !cmband)){
      const double2 rposxy=posxy[p];
      const double rposz=posz[p];
      const double dist=KerPointPlane(plane,rposxy.x,rposxy.y,rposz);  //fgeo::PlanePoint(plane,ps);
      bool ok=(dist>=0 && dist<=maxdist);
      if(ok && isvertical){
        const float dx=float(rposxy.x-pcen1.x);
        const float dy=float(rposxy.y-pcen1.y);
        ok=(dx*dx+dy*dy<=radius);
      }
      if(ok && !isvertical){
        //cugeo::LinePointDist(ps,Point1,Point2)
        const double ar=cugeo::TriangleArea(make_double3(rposxy.x,rposxy.y,rposz),pcen1,pcen2);
        const double dis=(ar*2)/maxdist;
        ok=(dis<=radius);
      }
      if(inverse)ok=!ok;
      r=(cmband? r&&ok: r||ok);
      psel=psel&(~resmask);
      if(r)psel=psel|resmask;
      sel[p]=psel;
    }
  }
}
//==============================================================================
/// Compute filter for particles.
//==============================================================================
void ComputeOutputPartsCylinder(byte resmask,bool cmband,bool inverse
  ,double4 plane,float maxdist,double3 pcen1,double3 pcen2,float radius
  ,unsigned n,unsigned pini,const double2* posxy,const double* posz,byte* sel)
{
  if(n){
    const bool isvertical=(pcen1.x==pcen2.x && pcen1.y==pcen2.y);
    dim3 sgrid=GetSimpleGridSize(n,SPHBSIZE);
    if(isvertical) KerComputeOutputPartsCylinder<true > <<<sgrid,SPHBSIZE>>> (n,pini
      ,resmask,cmband,inverse,plane,maxdist,pcen1,pcen2,radius,posxy,posz,sel);
    if(!isvertical)KerComputeOutputPartsCylinder<false> <<<sgrid,SPHBSIZE>>> (n,pini
      ,resmask,cmband,inverse,plane,maxdist,pcen1,pcen2,radius,posxy,posz,sel);
  }
}

//------------------------------------------------------------------------------
/// Compute filter for particles.
//------------------------------------------------------------------------------
__global__ void KerComputeOutputPartsType(unsigned n,unsigned pini
  ,byte resmask,bool cmband,bool inverse,byte types
  ,const typecode* code,byte* sel)
{
  unsigned pp=blockIdx.x*blockDim.x + threadIdx.x; //-Number of particle.
  if(pp<n){
    const unsigned p=pp+pini;
    byte psel=sel[p];
    bool r=((psel&resmask)!=0);
    if(r==cmband){ //if((r && cmband) || (!r && !cmband)){
      const typecode codetp=CODE_GetType(code[p]);
      bool ok=((types&1 && codetp==CODE_TYPE_FIXED) ||
               (types&2 && codetp==CODE_TYPE_MOVING) ||
               (types&4 && codetp==CODE_TYPE_FLOATING) ||
               (types&8 && codetp==CODE_TYPE_FLUID) );
      if(inverse)ok=!ok;
      r=(cmband? r&&ok: r||ok);
      psel=psel&(~resmask);
      if(r)psel=psel|resmask;
      sel[p]=psel;
    }
  }
}
//==============================================================================
/// Compute filter for particles.
//==============================================================================
void ComputeOutputPartsType(byte resmask,bool cmband,bool inverse
  ,byte types,unsigned n,unsigned pini,const typecode* code,byte* sel)
{
  if(n){
    dim3 sgrid=GetSimpleGridSize(n,SPHBSIZE);
    KerComputeOutputPartsType <<<sgrid,SPHBSIZE>>> (n,pini,resmask,cmband,inverse
      ,types,code,sel);
  }
}

//------------------------------------------------------------------------------
/// Compute filter for particles.
//------------------------------------------------------------------------------
__global__ void KerComputeOutputPartsMk(unsigned n,unsigned pini
  ,byte resmask,bool cmband,bool inverse,typecode mkcode1,typecode mkcode2
  ,const typecode* code,byte* sel)
{
  unsigned pp=blockIdx.x*blockDim.x + threadIdx.x; //-Number of particle.
  if(pp<n){
    const unsigned p=pp+pini;
    byte psel=sel[p];
    bool r=((psel&resmask)!=0);
    if(r==cmband){ //if((r && cmband) || (!r && !cmband)){
      const typecode codetp=CODE_GetTypeAndValue(code[p]);
      bool ok=(mkcode1<=codetp && codetp<=mkcode2);
      if(inverse)ok=!ok;
      r=(cmband? r&&ok: r||ok);
      psel=psel&(~resmask);
      if(r)psel=psel|resmask;
      sel[p]=psel;
    }
  }
}
//==============================================================================
/// Compute filter for particles.
//==============================================================================
void ComputeOutputPartsMk(byte resmask,bool cmband,bool inverse
  ,typecode mkcode1,typecode mkcode2,unsigned n,unsigned pini
  ,const typecode* code,byte* sel)
{
  if(n){
    dim3 sgrid=GetSimpleGridSize(n,SPHBSIZE);
    KerComputeOutputPartsMk <<<sgrid,SPHBSIZE>>> (n,pini,resmask,cmband,inverse
      ,mkcode1,mkcode2,code,sel);
  }
}

//<vs_outpaarts_end>



}


//##############################################################################
//# Kernels for InOut (JSphInOut).
//# Kernels para InOut (JSphInOut).
//##############################################################################
#include "JSphGpu_InOut_iker.cu"


