//HEAD_DSPH
/*
 <DUALSPHYSICS>  Copyright (c) 2025 by Dr Jose M. Dominguez et al. (see http://dual.sphysics.org/index.php/developers/). 

 EPHYSLAB Environmental Physics Laboratory, Universidade de Vigo, Ourense, Spain.
 School of Mechanical, Aerospace and Civil Engineering, University of Manchester, Manchester, U.K.

 This file is part of DualSPHysics. 

 DualSPHysics is free software: you can redistribute it and/or modify it under the terms of the GNU Lesser General Public License 
 as published by the Free Software Foundation; either version 2.1 of the License, or (at your option) any later version.
 
 DualSPHysics is distributed in the hope that it will be useful, but WITHOUT ANY WARRANTY; without even the implied warranty of
 MERCHANTABILITY or FITNESS FOR A PARTICULAR PURPOSE.  See the GNU Lesser General Public License for more details. 

 You should have received a copy of the GNU Lesser General Public License along with DualSPHysics. If not, see <http://www.gnu.org/licenses/>. 
*/

/// \file JSphGpu_ker.cu \brief Implements functions and CUDA kernels for the Particle Interaction and System Update.

#include "JSphGpu_ker.h"
#include "Functions.h"
#include "FunctionsCuda.h"
#include "JLog2.h"
#include <cfloat>
#include <math_constants.h>
//:#include "JDgKerPrint.h"
//:#include "JDgKerPrint_ker.h"

#pragma warning(disable : 4267) //Cancels "warning C4267: conversion from 'size_t' to 'int', possible loss of data"
#pragma warning(disable : 4244) //Cancels "warning C4244: conversion from 'unsigned __int64' to 'unsigned int', possible loss of data"
#pragma warning(disable : 4503) //Cancels "warning C4503: decorated name length exceeded, name was truncated"
#include <thrust/device_vector.h>
#include <thrust/sort.h>
#include <thrust/gather.h>
#include <thrust/logical.h>
#include <thrust/count.h>

__constant__ StCteInteraction CTE;
#define CTE_AVAILABLE

namespace cusph{
#include "FunctionsBasic_iker.h"
#include "FunctionsMath_iker.h"
#include "FunctionsGeo3d_iker.h"
#include "FunSphKernel_iker.h"
#include "FunSphEos_iker.h"
#include "JCellSearch_iker.h"


//==============================================================================
/// Reduction using maximum of float values in shared memory for a warp.
/// Reduccion mediante maximo de valores float en memoria shared para un warp.
//==============================================================================
template <unsigned blockSize> __device__ void KerReduMaxFloatWarp(
  volatile float* sdat,unsigned tid)
{
  if(blockSize>=64)sdat[tid]=max(sdat[tid],sdat[tid+32]);
  if(blockSize>=32)sdat[tid]=max(sdat[tid],sdat[tid+16]);
  if(blockSize>=16)sdat[tid]=max(sdat[tid],sdat[tid+8]);
  if(blockSize>=8)sdat[tid]=max(sdat[tid],sdat[tid+4]);
  if(blockSize>=4)sdat[tid]=max(sdat[tid],sdat[tid+2]);
  if(blockSize>=2)sdat[tid]=max(sdat[tid],sdat[tid+1]);
}

//==============================================================================
/// Accumulates the maximum of n values of array dat[], storing the result in 
/// the beginning of res[].(Many positions of res[] are used as blocks, 
/// storing the final result in res[0]).
///
/// Acumula el maximo de n valores del vector dat[], guardando el resultado al 
/// principio de res[] (Se usan tantas posiciones del res[] como bloques, 
/// quedando el resultado final en res[0]).
//==============================================================================
template <unsigned blockSize> __global__ void KerReduMaxFloat(unsigned n
  ,unsigned ini,const float* dat,float* res)
{
  extern __shared__ float sdat[];
  unsigned tid=threadIdx.x;
  unsigned c=blockIdx.x*blockDim.x + threadIdx.x;
  sdat[tid]=(c<n? dat[c+ini]: -FLT_MAX);
  __syncthreads();
  if(blockSize>=512){ if(tid<256)sdat[tid]=max(sdat[tid],sdat[tid+256]);  __syncthreads(); }
  if(blockSize>=256){ if(tid<128)sdat[tid]=max(sdat[tid],sdat[tid+128]);  __syncthreads(); }
  if(blockSize>=128){ if(tid<64) sdat[tid]=max(sdat[tid],sdat[tid+64]);   __syncthreads(); }
  if(tid<32)KerReduMaxFloatWarp<blockSize>(sdat,tid);
  if(tid==0)res[blockIdx.x]=sdat[0];
}

//==============================================================================
/// Returns the maximum of an array, using resu[] as auxiliar array.
/// Size of resu[] must be >= a (N/SPHBSIZE+1)+(N/(SPHBSIZE*SPHBSIZE)+SPHBSIZE)
///
/// Devuelve el maximo de un vector, usando resu[] como vector auxiliar. El tamanho
/// de resu[] debe ser >= a (N/SPHBSIZE+1)+(N/(SPHBSIZE*SPHBSIZE)+SPHBSIZE)
//==============================================================================
float ReduMaxFloat(unsigned ndata,unsigned inidata,float* data,float* resu){
  float resf=0;
  if(ndata>=1){
    unsigned n=ndata,ini=inidata;
    unsigned smemSize=SPHBSIZE*sizeof(float);
    dim3 sgrid=GetSimpleGridSize(n,SPHBSIZE);
    unsigned n_blocks=sgrid.x*sgrid.y;
    float* dat=data;
    float* resu1=resu;
    float* resu2=resu+n_blocks;
    float* res=resu1;
    while(n>1){
      KerReduMaxFloat<SPHBSIZE><<<sgrid,SPHBSIZE,smemSize>>>(n,ini,dat,res);
      n=n_blocks; ini=0;
      sgrid=GetSimpleGridSize(n,SPHBSIZE);  
      n_blocks=sgrid.x*sgrid.y;
      if(n>1){
        dat=res; res=(dat==resu1? resu2: resu1); 
      }
    }
    if(ndata>1)cudaMemcpy(&resf,res,sizeof(float),cudaMemcpyDeviceToHost);
    else cudaMemcpy(&resf,data,sizeof(float),cudaMemcpyDeviceToHost);
  }
  //else{//-Using Thrust library is slower than ReduMasFloat() with ndata < 5M.
  //  thrust::device_ptr<float> dev_ptr(data);
  //  resf=thrust::reduce(dev_ptr,dev_ptr+ndata,-FLT_MAX,thrust::maximum<float>());
  //}
  return(resf);
}

//==============================================================================
/// Accumulates the sum of n values of array dat[], storing the result in 
/// the beginning of res[].(Many positions of res[] are used as blocks, 
/// storing the final result in res[0]).
///
/// Acumula la suma de n valores del vector dat[].w, guardando el resultado al 
/// principio de res[] (Se usan tantas posiciones del res[] como bloques, 
/// quedando el resultado final en res[0]).
//==============================================================================
template <unsigned blockSize> __global__ void KerReduMaxFloat_w(unsigned n
  ,unsigned ini,const float4* dat,float* res)
{
  extern __shared__ float sdat[];
  unsigned tid=threadIdx.x;
  unsigned c=blockIdx.x*blockDim.x + threadIdx.x;
  sdat[tid]=(c<n? dat[c+ini].w: -FLT_MAX);
  __syncthreads();
  if(blockSize>=512){ if(tid<256)sdat[tid]=max(sdat[tid],sdat[tid+256]);  __syncthreads(); }
  if(blockSize>=256){ if(tid<128)sdat[tid]=max(sdat[tid],sdat[tid+128]);  __syncthreads(); }
  if(blockSize>=128){ if(tid<64) sdat[tid]=max(sdat[tid],sdat[tid+64]);   __syncthreads(); }
  if(tid<32)KerReduMaxFloatWarp<blockSize>(sdat,tid);
  if(tid==0)res[blockIdx.x]=sdat[0];
}

//==============================================================================
/// Returns the maximum of an array, using resu[] as auxiliar array.
/// Size of resu[] must be >= a (N/SPHBSIZE+1)+(N/(SPHBSIZE*SPHBSIZE)+SPHBSIZE).
///
/// Devuelve el maximo de la componente w de un vector float4, usando resu[] como 
/// vector auxiliar. El tamanho de resu[] debe ser >= a (N/SPHBSIZE+1)+(N/(SPHBSIZE*SPHBSIZE)+SPHBSIZE).
//==============================================================================
float ReduMaxFloat_w(unsigned ndata,unsigned inidata,float4* data,float* resu){
  unsigned n=ndata,ini=inidata;
  unsigned smemSize=SPHBSIZE*sizeof(float);
  dim3 sgrid=GetSimpleGridSize(n,SPHBSIZE);
  unsigned n_blocks=sgrid.x*sgrid.y;
  float* dat=NULL;
  float* resu1=resu;
  float* resu2=resu+n_blocks;
  float* res=resu1;
  while(n>1){
    if(!dat)KerReduMaxFloat_w<SPHBSIZE><<<sgrid,SPHBSIZE,smemSize>>>(n,ini,data,res);
    else KerReduMaxFloat<SPHBSIZE><<<sgrid,SPHBSIZE,smemSize>>>(n,ini,dat,res);
    n=n_blocks; ini=0;
    sgrid=GetSimpleGridSize(n,SPHBSIZE);  
    n_blocks=sgrid.x*sgrid.y;
    if(n>1){
      dat=res; res=(dat==resu1? resu2: resu1); 
    }
  }
  float resf;
  if(ndata>1)cudaMemcpy(&resf,res,sizeof(float),cudaMemcpyDeviceToHost);
  else{
    float4 resf4;
    cudaMemcpy(&resf4,data,sizeof(float4),cudaMemcpyDeviceToHost);
    resf=resf4.w;
  }
  return(resf);
}

//==============================================================================
/// Stores constants for the GPU interaction.
/// Graba constantes para la interaccion a la GPU.
//==============================================================================
void CteInteractionUp(const StCteInteraction* cte){
  cudaMemcpyToSymbol(CTE,cte,sizeof(StCteInteraction));
}

//------------------------------------------------------------------------------
/// Initialises array with the indicated value.
/// Inicializa array con el valor indicado.
//------------------------------------------------------------------------------
__global__ void KerInitArray(unsigned n,float3* v,float3 value)
{
  unsigned p=blockIdx.x*blockDim.x + threadIdx.x; //-Number of particle.
  if(p<n)v[p]=value;
}

//==============================================================================
/// Initialises array with the indicated value.
/// Inicializa array con el valor indicado.
//==============================================================================
void InitArray(unsigned n,float3* v,tfloat3 value){
  if(n){
    dim3 sgrid=GetSimpleGridSize(n,SPHBSIZE);
    KerInitArray <<<sgrid,SPHBSIZE>>> (n,v,Float3(value));
  }
}

//------------------------------------------------------------------------------
/// Sets v[].y to zero.
/// Pone v[].y a cero.
//------------------------------------------------------------------------------
__global__ void KerResety(unsigned n,unsigned ini,float3* v)
{
  unsigned p=blockIdx.x*blockDim.x + threadIdx.x; //-Number of particle.
  if(p<n)v[p+ini].y=0;
}

//==============================================================================
/// Sets v[].y to zero.
/// Pone v[].y a cero.
//==============================================================================
void Resety(unsigned n,unsigned ini,float3* v){
  if(n){
    dim3 sgrid=GetSimpleGridSize(n,SPHBSIZE);
    KerResety <<<sgrid,SPHBSIZE>>> (n,ini,v);
  }
}

//------------------------------------------------------------------------------
/// Calculates module^2 of ace.
//------------------------------------------------------------------------------
__global__ void KerComputeAceMod(unsigned n,const float3* ace,float* acemod)
{
  unsigned p=blockIdx.x*blockDim.x + threadIdx.x; //-Number of particle.
  if(p<n){
    const float3 r=ace[p];
    acemod[p]=r.x*r.x+r.y*r.y+r.z*r.z;
  }
}

//==============================================================================
/// Calculates module^2 of ace.
//==============================================================================
void ComputeAceMod(unsigned n,const float3* ace,float* acemod){
  if(n){
    dim3 sgrid=GetSimpleGridSize(n,SPHBSIZE);
    KerComputeAceMod <<<sgrid,SPHBSIZE>>> (n,ace,acemod);
  }
}

//------------------------------------------------------------------------------
/// Calculates module^2 of ace, comprobando que la particula sea normal.
/// Uses zero for periodic particles.
//------------------------------------------------------------------------------
__global__ void KerComputeAceMod(unsigned n,const typecode* code
  ,const float3* ace,float* acemod)
{
  unsigned p=blockIdx.x*blockDim.x + threadIdx.x; //-Number of particle.
  if(p<n){
    const typecode rcod=code[p];
    const float3 r=(CODE_IsNormal(rcod) && !CODE_IsFluidInout(rcod) && !CODE_IsFluidBuffer(rcod)? ace[p]: make_float3(0,0,0));  //<vs_vrres
    acemod[p]=r.x*r.x+r.y*r.y+r.z*r.z;
  }
}

//==============================================================================
/// Calculates module^2 of ace, comprobando que la particula sea normal.
/// Uses zero for periodic particles.
//==============================================================================
void ComputeAceMod(unsigned n,const typecode* code,const float3* ace
  ,float* acemod)
{
  if(n){
    dim3 sgrid=GetSimpleGridSize(n,SPHBSIZE);
    KerComputeAceMod <<<sgrid,SPHBSIZE>>> (n,code,ace,acemod);
  }
}


//##############################################################################
//# Other kernels...
//# Otros kernels...
//##############################################################################
//------------------------------------------------------------------------------
/// Calculates module^2 of vel.
//------------------------------------------------------------------------------
__global__ void KerComputeVelMod(unsigned n,const float4* vel,float* velmod)
{
  unsigned p=blockIdx.x*blockDim.x + threadIdx.x; //-Number of particle.
  if(p<n){
    const float4 r=vel[p];
    velmod[p]=r.x*r.x+r.y*r.y+r.z*r.z;
  }
}

//==============================================================================
/// Calculates module^2 of vel.
//==============================================================================
void ComputeVelMod(unsigned n,const float4* vel,float* velmod){
  if(n){
    dim3 sgrid=GetSimpleGridSize(n,SPHBSIZE);
    KerComputeVelMod <<<sgrid,SPHBSIZE>>> (n,vel,velmod);
  }
}


//##############################################################################
//# Kernels para cambiar la posicion.
//# Kernels for changing the position.
//##############################################################################
//------------------------------------------------------------------------------
/// Updates pos, dcell and code from the indicated displacement.
/// The code may be CODE_OUTRHO because in ComputeStepVerlet / Symplectic this is evaluated
/// and is executed before ComputeStepPos.
/// Checks limits depending on maprealposmin and maprealsize, this is valid 
/// for single-GPU because maprealpos and domrealpos are equal. For multi-gpu it is
/// important to mark particles that leave the domain without leaving the map.
///
/// Actualiza pos, dcell y code a partir del desplazamiento indicado.
/// Code puede ser CODE_OUTRHO pq en ComputeStepVerlet/Symplectic se evalua esto 
/// y se ejecuta antes que ComputeStepPos.
/// Comprueba los limites en funcion de maprealposmin y maprealsize esto es valido
/// para single-gpu pq domrealpos y maprealpos son iguales. Para multi-gpu seria 
/// necesario marcar las particulas q salgan del dominio sin salir del mapa.
//------------------------------------------------------------------------------
template<bool periactive> __device__ void KerUpdatePos(
  double2 rxy,double rz,double movx,double movy,double movz
  ,bool outrho,unsigned p,double2* posxy,double* posz,unsigned* dcell
  ,typecode* code)
{
  //-Checks validity of displacement. | Comprueba validez del desplazamiento.
  const bool outmov=(fmaxf(fabsf(float(movx)),fmaxf(fabsf(float(movy)),fabsf(float(movz))))>CTE.movlimit);
  //-Applies diplacement.
  double3 rpos=make_double3(rxy.x,rxy.y,rz);
  rpos.x+=movx; rpos.y+=movy; rpos.z+=movz;
  //-Checks limits of real domain. | Comprueba limites del dominio reales.
  double dx=rpos.x-CTE.maprealposminx;
  double dy=rpos.y-CTE.maprealposminy;
  double dz=rpos.z-CTE.maprealposminz;
  bool out=(dx!=dx || dy!=dy || dz!=dz || dx<0 || dy<0 || dz<0 || dx>=CTE.maprealsizex || dy>=CTE.maprealsizey || dz>=CTE.maprealsizez);
  if(periactive && out){
    bool xperi=(CTE.periactive&1),yperi=(CTE.periactive&2),zperi=(CTE.periactive&4);
    if(xperi){
      if(dx<0)                { dx-=CTE.xperincx; dy-=CTE.xperincy; dz-=CTE.xperincz; }
      if(dx>=CTE.maprealsizex){ dx+=CTE.xperincx; dy+=CTE.xperincy; dz+=CTE.xperincz; }
    }
    if(yperi){
      if(dy<0)                { dx-=CTE.yperincx; dy-=CTE.yperincy; dz-=CTE.yperincz; }
      if(dy>=CTE.maprealsizey){ dx+=CTE.yperincx; dy+=CTE.yperincy; dz+=CTE.yperincz; }
    }
    if(zperi){
      if(dz<0)                { dx-=CTE.zperincx; dy-=CTE.zperincy; dz-=CTE.zperincz; }
      if(dz>=CTE.maprealsizez){ dx+=CTE.zperincx; dy+=CTE.zperincy; dz+=CTE.zperincz; }
    }
    bool outx=!xperi && (dx<0 || dx>=CTE.maprealsizex);
    bool outy=!yperi && (dy<0 || dy>=CTE.maprealsizey);
    bool outz=!zperi && (dz<0 || dz>=CTE.maprealsizez);
    out=(outx||outy||outz);
    rpos=make_double3(dx+CTE.maprealposminx,dy+CTE.maprealposminy,dz+CTE.maprealposminz);
  }
  //-Stores updated position.
  posxy[p]=make_double2(rpos.x,rpos.y);
  posz[p]=rpos.z;
  //-Stores cell and check. | Guarda celda y check.
  if(outrho || outmov || out){//-Particle out. Only brands as excluded normal particles (not periodic). | Particle out. Solo las particulas normales (no periodicas) se pueden marcar como excluidas.
    typecode rcode=code[p];
    if(out)rcode=CODE_SetOutPos(rcode);
    else if(outrho)rcode=CODE_SetOutRho(rcode);
    else rcode=CODE_SetOutMov(rcode);
    code[p]=rcode;
    dcell[p]=DCEL_CodeMapOut;
  }
  else{//-Particle in.
    if(periactive){
      dx=rpos.x-CTE.domposminx;
      dy=rpos.y-CTE.domposminy;
      dz=rpos.z-CTE.domposminz;
    }
    const unsigned cx=unsigned(dx/CTE.scell);
    const unsigned cy=unsigned(dy/CTE.scell);
    const unsigned cz=unsigned(dz/CTE.scell);
    dcell[p]=DCEL_Cell(CTE.cellcode,cx,cy,cz);
  }
}

//------------------------------------------------------------------------------
/// Returns the corrected position after applying periodic conditions.
/// Devuelve la posicion corregida tras aplicar condiciones periodicas.
//------------------------------------------------------------------------------
__device__ double3 KerUpdatePeriodicPos(double3 ps)
{
  double dx=ps.x-CTE.maprealposminx;
  double dy=ps.y-CTE.maprealposminy;
  double dz=ps.z-CTE.maprealposminz;
  const bool out=(dx!=dx || dy!=dy || dz!=dz || dx<0 || dy<0 || dz<0 || dx>=CTE.maprealsizex || dy>=CTE.maprealsizey || dz>=CTE.maprealsizez);
  //-Adjusts position according to periodic conditions and rechecks domain limits.
  //-Ajusta posicion segun condiciones periodicas y vuelve a comprobar los limites del dominio.
  if(out){
    bool xperi=(CTE.periactive&1),yperi=(CTE.periactive&2),zperi=(CTE.periactive&4);
    if(xperi){
      if(dx<0)                { dx-=CTE.xperincx; dy-=CTE.xperincy; dz-=CTE.xperincz; }
      if(dx>=CTE.maprealsizex){ dx+=CTE.xperincx; dy+=CTE.xperincy; dz+=CTE.xperincz; }
    }
    if(yperi){
      if(dy<0)                { dx-=CTE.yperincx; dy-=CTE.yperincy; dz-=CTE.yperincz; }
      if(dy>=CTE.maprealsizey){ dx+=CTE.yperincx; dy+=CTE.yperincy; dz+=CTE.yperincz; }
    }
    if(zperi){
      if(dz<0)                { dx-=CTE.zperincx; dy-=CTE.zperincy; dz-=CTE.zperincz; }
      if(dz>=CTE.maprealsizez){ dx+=CTE.zperincx; dy+=CTE.zperincy; dz+=CTE.zperincz; }
    }
    ps=make_double3(dx+CTE.maprealposminx,dy+CTE.maprealposminy,dz+CTE.maprealposminz);
  }
  return(ps);
}

//------------------------------------------------------------------------------
/// Helper function for No penetration algorithm.
//------------------------------------------------------------------------------
__device__ void ComputeNoPenVel(const float dv,const float norm,const float dr
  ,float& nopencount,float& nopenshift)
{
  const float vfc=dv*norm;
  if(vfc<0.f){//-fluid particle moving towards boundary?
    const float ratio=max(abs(dr/norm),0.25f);
    const float factor=-4.f*ratio+3.f;
    nopencount+=1.f; //-boundary particle counter for average
                //-delta v = sum uij dot (nj cross nj)
    nopenshift-=factor*dv*norm*norm;
  }
}


//##############################################################################
//# Kernels for calculating forces (Pos-Double).
//# Kernels para calculo de fuerzas (Pos-Double).
//##############################################################################
//------------------------------------------------------------------------------
/// Interaction of a particle with a set of particles. Bound-Fluid/Float
/// Realiza la interaccion de una particula con un conjunto de ellas. Bound-Fluid/Float
//------------------------------------------------------------------------------
template<TpKernel tker,TpFtMode ftmode>
  __device__ void KerInteractionForcesBoundBox
  (unsigned p1,const unsigned& pini,const unsigned& pfin
  ,const float* ftomassp
  ,const float4* poscell,const float4* velrho,const typecode* code,const unsigned* idp
  ,float massf,const float4& pscellp1,const float4& velrhop1,float& arp1,float& visc)
{
  for(int p2=pini;p2<pfin;p2++){
    const float4 pscellp2=poscell[p2];
    const float drx=pscellp1.x-pscellp2.x + CTE.poscellsize*(PSCEL_GetfX(pscellp1.w)-PSCEL_GetfX(pscellp2.w));
    const float dry=pscellp1.y-pscellp2.y + CTE.poscellsize*(PSCEL_GetfY(pscellp1.w)-PSCEL_GetfY(pscellp2.w));
    const float drz=pscellp1.z-pscellp2.z + CTE.poscellsize*(PSCEL_GetfZ(pscellp1.w)-PSCEL_GetfZ(pscellp2.w));
    const float rr2=drx*drx+dry*dry+drz*drz;
    if(rr2<=CTE.kernelsize2 && rr2>=ALMOSTZERO){
      //-Computes kernel.
      const float fac=cufsph::GetKernel_Fac<tker>(rr2);
      const float frx=fac*drx,fry=fac*dry,frz=fac*drz; //-Gradients.

      const float4 velrhop2=velrho[p2];
      //-Obtains particle mass p2 if there are floating bodies.
      //-Obtiene masa de particula p2 en caso de existir floatings.
      float ftmassp2;    //-Contains mass of floating body or massf if fluid. | Contiene masa de particula floating o massf si es fluid.
      bool compute=true; //-Deactivated when DEM is used and is float-float or float-bound. | Se desactiva cuando se usa DEM y es float-float o float-bound.
      if(USE_FLOATING){
        const typecode cod=code[p2];
        bool ftp2=CODE_IsFloating(cod);
        ftmassp2=(ftp2? ftomassp[CODE_GetTypeValue(cod)]: massf);
        compute=!(USE_FTEXTERNAL && ftp2); //-Deactivated when DEM or Chrono is used and is bound-float. | Se desactiva cuando se usa DEM o Chrono y es bound-float.
      }

      if(compute){
        //-Density derivative (Continuity equation).
        const float dvx=velrhop1.x-velrhop2.x, dvy=velrhop1.y-velrhop2.y, dvz=velrhop1.z-velrhop2.z;
        arp1+=(USE_FLOATING? ftmassp2: massf)*(dvx*frx+dvy*fry+dvz*frz)*(velrhop1.w/velrhop2.w);

        {//===== Viscosity ===== 
          const float dot=drx*dvx + dry*dvy + drz*dvz;
          const float dot_rr2=dot/(rr2+CTE.eta2);
          visc=max(dot_rr2,visc); 
        }
      }
    }
  }
}

//------------------------------------------------------------------------------
/// Particle interaction. Bound-Fluid/Float
/// Realiza interaccion entre particulas. Bound-Fluid/Float
//------------------------------------------------------------------------------
template<TpKernel tker,TpFtMode ftmode> 
  __global__ void KerInteractionForcesBound(unsigned n,unsigned pinit
  ,int scelldiv,int4 nc,int3 cellzero,const int2* beginendcellfluid,const unsigned* dcell
  ,const float* ftomassp
  ,const float4* poscell,const float4* velrho,const typecode* code,const unsigned* idp
  ,float* viscdt,float* ar)
{
  const unsigned p=blockIdx.x*blockDim.x + threadIdx.x; //-Number of thread.
  if(p<n){
    const unsigned p1=p+pinit;      //-Number of particle.
    float visc=0,arp1=0;

    //-Loads particle p1 data.
    const float4 pscellp1=poscell[p1];
    const float4 velrhop1=velrho[p1];
    
    //-Obtains neighborhood search limits.
    int ini1,fin1,ini2,fin2,ini3,fin3;
    cunsearch::InitCte(dcell[p1],scelldiv,nc,cellzero,ini1,fin1,ini2,fin2,ini3,fin3);

    //-Boundary-Fluid interaction.
    for(int c3=ini3;c3<fin3;c3+=nc.w)for(int c2=ini2;c2<fin2;c2+=nc.x){
      unsigned pini,pfin=0;  cunsearch::ParticleRange(c2,c3,ini1,fin1,beginendcellfluid,pini,pfin);
      if(pfin){
        KerInteractionForcesBoundBox<tker,ftmode> (p1,pini,pfin,ftomassp,poscell
          ,velrho,code,idp,CTE.massf,pscellp1,velrhop1,arp1,visc);
      }
    }
    //-Stores results.
    if(arp1 || visc){
      ar[p1]+=arp1;
      if(visc>viscdt[p1])viscdt[p1]=visc;
    }
  }
}

//------------------------------------------------------------------------------
/// Interaction of a particle with a set of particles. (Fluid/Float-Fluid/Float/Bound)
/// Realiza la interaccion de una particula con un conjunto de ellas. (Fluid/Float-Fluid/Float/Bound)
//------------------------------------------------------------------------------
template<TpKernel tker,TpFtMode ftmode,TpVisco tvisco,TpDensity tdensity
  ,bool shift,TpMdbc2Mode mdbc2
  ,bool shiftadv,bool aleform,bool ncpress,bool divclean> //<vs_advshift>
  __device__ void KerInteractionForcesFluidBox
  (bool boundp2,unsigned p1,const unsigned& pini,const unsigned& pfin,float visco
  ,const float* ftomassp,const float2* tauff,const float3* dengradcorr
  ,const float4* poscell,const float4* velrho,const typecode* code,const unsigned* idp
  ,const byte* boundmode,const float3* tangenvel,const float3* motionvel,const float3* boundnorm //<vs_m2dbc>
  ,float massp2,bool ftp1
  ,const float4& pscellp1,const float4& velrhop1,float pressp1
  ,const float2& taup1_xx_xy,const float2& taup1_xz_yy,const float2& taup1_yz_zz
  ,float2& two_strainp1_xx_xy,float2& two_strainp1_xz_yy,float2& two_strainp1_yz_zz
  ,float3& acep1,float& arp1,float& visc,float& deltap1
  ,TpShifting shiftmode,float4& shiftposfsp1,float3& nopenshift, float3& nopencount
  ,float& fs_treshold,unsigned& neigh,float& pou //<vs_advshift>
  ,const float4* shiftvel,float3& presssym,float3& pressasym,tmatrix3f& lcorr,const float3 shiftp1 //<vs_advshift>
  ,const float* psiclean,float& psicleanr,const float psicleanp1)     //<vs_divclean>
{
  for(int p2=pini;p2<pfin;p2++){
    const float4 pscellp2=poscell[p2];
    const float drx=pscellp1.x-pscellp2.x + CTE.poscellsize*(PSCEL_GetfX(pscellp1.w)-PSCEL_GetfX(pscellp2.w));
    const float dry=pscellp1.y-pscellp2.y + CTE.poscellsize*(PSCEL_GetfY(pscellp1.w)-PSCEL_GetfY(pscellp2.w));
    const float drz=pscellp1.z-pscellp2.z + CTE.poscellsize*(PSCEL_GetfZ(pscellp1.w)-PSCEL_GetfZ(pscellp2.w));
    const float rr2=drx*drx+dry*dry+drz*drz;
    if(rr2<=CTE.kernelsize2 && rr2>=ALMOSTZERO){
      //-Computes kernel.
      const float fac=cufsph::GetKernel_Fac<tker>(rr2);
      const float frx=fac*drx,fry=fac*dry,frz=fac*drz; //-Gradients.

      //-Obtains mass of particle p2 if any floating bodies exist.
      //-Obtiene masa de particula p2 en caso de existir floatings.
      bool ftp2=false;         //-Indicates if it is floating. | Indica si es floating.
      float ftmassp2;    //-Contains mass of floating body or massf if fluid. | Contiene masa de particula floating o massp2 si es bound o fluid.
      bool compute=true; //-Deactivated when DEM is used and is float-float or float-bound. | Se desactiva cuando se usa DEM y es float-float o float-bound.
      if(USE_FLOATING){
        const typecode cod=code[p2];
        ftp2=CODE_IsFloating(cod);
        ftmassp2=(ftp2? ftomassp[CODE_GetTypeValue(cod)]: massp2);
        #ifdef DELTA_HEAVYFLOATING
          if(ftp2 && tdensity==DDT_DDT && ftmassp2<=(massp2*1.2f))deltap1=FLT_MAX;
        #else
          if(ftp2 && tdensity==DDT_DDT)deltap1=FLT_MAX;
        #endif
        if(ftp2 && shift && shiftmode==SHIFT_NoBound)shiftposfsp1.x=FLT_MAX; //-Cancels shifting with floating bodies. | Con floatings anula shifting.
        compute=!(USE_FTEXTERNAL && ftp1 && (boundp2 || ftp2)); //-Deactivated when DEM or Chrono is used and is float-float or float-bound. | Se desactiva cuando se usa DEM o Chrono y es float-float o float-bound.
      }
      //-Changing the mass of boundary particle with boundmode. //<vs_m2dbc_ini>
      if(mdbc2>=MDBC2_Std && boundp2 && !ftp2){
        if(boundmode[p2]==BMODE_MDBC2OFF)massp2=0;
      } //<vs_m2dbc_end>

      const float4 velrhop2=velrho[p2];
      //-Velocity derivative (Momentum equation).
      if(compute && !ncpress){
        const float pressp2=cufsph::ComputePressCte(velrhop2.w);
        const float prs=(pressp1+pressp2)/(velrhop1.w*velrhop2.w)
          +(tker==KERNEL_Cubic? cufsph::GetKernelCubic_Tensil(rr2,velrhop1.w,pressp1,velrhop2.w,pressp2): 0);
        const float p_vpm=-prs*(USE_FLOATING? ftmassp2: massp2);
        acep1.x+=p_vpm*frx; acep1.y+=p_vpm*fry; acep1.z+=p_vpm*frz;
      }

      if(ncpress && compute){ //<vs_advshift_ini>
        const float pressp2=cufsph::ComputePressCte(velrhop2.w);
        const float prs=(pressp1+pressp2)/(velrhop1.w*velrhop2.w)
          +(tker==KERNEL_Cubic? cufsph::GetKernelCubic_Tensil(rr2,velrhop1.w,pressp1,velrhop2.w,pressp2): 0);
        const float p_vpm=-prs*(USE_FLOATING? ftmassp2: massp2);
        const float ncprs=(-pressp1+pressp2)/(velrhop1.w*velrhop2.w);
        const float ncp_vpm=-ncprs*(USE_FLOATING? ftmassp2: massp2);
        presssym.x+=p_vpm*frx; presssym.y+=p_vpm*fry; presssym.z+=p_vpm*frz;
        pressasym.x+=ncp_vpm*frx; pressasym.y+=ncp_vpm*fry; pressasym.z+=ncp_vpm*frz;
      } //<vs_advshift_end>    

      //-Density derivative (Continuity equation).
      float dvx=velrhop1.x-velrhop2.x, dvy=velrhop1.y-velrhop2.y, dvz=velrhop1.z-velrhop2.z;
      #ifndef MDBC2_KEEPVEL
      if(mdbc2>=MDBC2_Std && boundp2 && !ftp2){ //<vs_m2dbc_ini>
        const float3 movvelp2=motionvel[p2];
        dvx=velrhop1.x-movvelp2.x; //-mDBC2 no slip.
        dvy=velrhop1.y-movvelp2.y;
        dvz=velrhop1.z-movvelp2.z;
      } //<vs_m2dbc_end>
      #endif
      if(compute)arp1+=(USE_FLOATING? ftmassp2: massp2)*(dvx*frx+dvy*fry+dvz*frz)*(velrhop1.w/velrhop2.w);

      #ifdef AVAILABLE_DIVCLEAN
      if(divclean && compute){
        float psicleanp2=psiclean[p2];
        if(boundp2)psicleanp2=psicleanp1;
        float dvpsiclean=-(psicleanp1+psicleanp2)*massp2/(velrhop2.w);
        acep1.x+=dvpsiclean*frx; acep1.y+=dvpsiclean*fry; acep1.z+=dvpsiclean*frz;
        psicleanr+=CTE.cs0*CTE.cs0*(USE_FLOATING? ftmassp2: massp2)*(dvx*frx+dvy*fry+dvz*frz)/(velrhop2.w);
      }
      #endif

      if(aleform && compute){ //<vs_advshift_ini>
        float4 shiftp2=make_float4(0.f,0.f,0.f,0.f);
        if(!boundp2 && !ftp2 && !ftp1)shiftp2=shiftvel[p2];      

        float massrhop=(USE_FLOATING? ftmassp2: massp2)/velrhop2.w;
        float rhozeroover1=CTE.rhopzero/velrhop1.w;
        float divshiftp1=shiftp1.x*frx+shiftp1.y*fry+shiftp1.z*frz;
        float divshiftp2=shiftp2.x*frx+shiftp2.y*fry+shiftp2.z*frz;
        float div_pm1=divshiftp1*massrhop*rhozeroover1;
        float div_pm2=divshiftp2*massrhop*rhozeroover1;
        float dvx=shiftp1.x-shiftp2.x, dvy=shiftp1.y-shiftp2.y, dvz=shiftp1.z-shiftp2.z;

        acep1.x+=velrhop1.x*div_pm1;  acep1.y+=velrhop1.y*div_pm1;  acep1.z+=velrhop1.z*div_pm1;
        acep1.x+=velrhop2.x*div_pm2;  acep1.y+=velrhop2.y*div_pm2;  acep1.z+=velrhop2.z*div_pm2;

        float dotdv=massrhop*(-dvx*frx-dvy*fry-dvz*frz);
        acep1.x-= velrhop1.x*dotdv;   acep1.y-= velrhop1.y*dotdv; acep1.z-= velrhop1.z*dotdv;

        float dvx1=shiftp1.x*velrhop1.w+shiftp2.x*velrhop2.w, dvy1=shiftp1.y*velrhop1.w+shiftp2.y*velrhop2.w, dvz1=shiftp1.z*velrhop1.w+shiftp2.z*velrhop2.w;
        arp1+=massrhop*(dvx1*frx+dvy1*fry+dvz1*frz);
        // //-Density derivative (Continuity equation).
        arp1+=massrhop*(dvx*frx+dvy*fry+dvz*frz)*velrhop1.w;
      } //<vs_advshift_end>

      const float cbar=CTE.cs0;
      const float dot3=(tdensity!=DDT_None || shift? drx*frx+dry*fry+drz*frz: 0);
      //-Density Diffusion Term (Molteni and Colagrossi 2009).
      if(tdensity==DDT_DDT && deltap1!=FLT_MAX){
        const float rhop1over2=velrhop1.w/velrhop2.w;
        const float visc_densi=CTE.ddtkh*cbar*(rhop1over2-1.f)/(rr2+CTE.eta2);
        const float delta=visc_densi*dot3*(USE_FLOATING? ftmassp2: massp2);
        //deltap1=(boundp2? FLT_MAX: deltap1+delta);
        deltap1=(boundp2 && CTE.tboundary==BC_DBC? FLT_MAX: deltap1+delta);
      }
      //-Density Diffusion Term (Fourtakas et al 2019).
      if((tdensity==DDT_DDT2 || (tdensity==DDT_DDT2Full && !boundp2)) && deltap1!=FLT_MAX && !ftp2){
        const float rh=1.f+CTE.ddtgz*drz;
        const float drho=CTE.rhopzero*pow(rh,1.f/CTE.gamma)-CTE.rhopzero;  
        const float visc_densi=CTE.ddtkh*cbar*((velrhop2.w-velrhop1.w)-drho)/(rr2+CTE.eta2);
        const float delta=visc_densi*dot3*massp2/velrhop2.w;
        deltap1=(boundp2? FLT_MAX: deltap1-delta); //-blocks it makes it boil - bloody DBC
      }

      //-Shifting correction.
      if(shift && shiftposfsp1.x!=FLT_MAX){
        const float massrho=(USE_FLOATING? ftmassp2: massp2)/velrhop2.w;
        const bool noshift=(boundp2 && (shiftmode==SHIFT_NoBound || (shiftmode==SHIFT_NoFixed && CODE_IsFixed(code[p2]))));
        shiftposfsp1.x=(noshift? FLT_MAX: shiftposfsp1.x+massrho*frx); //-Removes shifting for the boundaries. | Con boundary anula shifting.
        shiftposfsp1.y+=massrho*fry;
        shiftposfsp1.z+=massrho*frz;
        shiftposfsp1.w-=massrho*dot3;
      }

      //-No-Penetration correction SHABA
      if(boundp2 && mdbc2==MDBC2_NoPen && !ftp2){//<vs_m2dbcNP_ini>
        const float rrmag=sqrt(rr2);
        if(rrmag<1.25f*CTE.dp){ //-if fluid particle is less than 1.25dp from a boundary particle
          const float norm=sqrt(boundnorm[p2].x*boundnorm[p2].x+boundnorm[p2].y*boundnorm[p2].y+boundnorm[p2].z*boundnorm[p2].z);
          const float normx=boundnorm[p2].x/norm; float normy=boundnorm[p2].y/norm; float normz=boundnorm[p2].z/norm;
          const float normdist=(normx*drx+normy*dry+normz*drz);
          if(normdist<0.75f*norm && norm<1.75f*float(CTE.dp)) {//-if normal distance is less than 0.75 boundary normal size and only first layer of bound
            const float3 movvelp2=motionvel[p2];
            float absx=abs(normx);
            float absy=abs(normy);
            float absz=abs(normz);
            // decompose the normal and apply correction in each direction separately
            if(drx*normx<0.75f && absx>0.001f*CTE.dp)cusph::ComputeNoPenVel(velrhop1.x-movvelp2.x,normx,drx,
                                                              nopencount.x,nopenshift.x);
            if(dry*normy<0.75f && absy>0.001f*CTE.dp)cusph::ComputeNoPenVel(velrhop1.y-movvelp2.y,normy,dry,
                                                              nopencount.y,nopenshift.y);
            if(drz*normz<0.75f && absz>0.001f*CTE.dp)cusph::ComputeNoPenVel(velrhop1.z-movvelp2.z,normz,drz,
                                                            nopencount.z,nopenshift.z);
          }
        }
      }//<vs_m2dbcNP_end>

      //-Advanced shifting. //<vs_advshift_ini>
      if(shiftadv && compute){
        const float massrho=(USE_FLOATING? ftmassp2: massp2)/velrhop2.w;        
        const float wab=cufsph::GetKernel_Wab<KERNEL_Wendland>(rr2);
        pou+=wab*massrho;
        fs_treshold-=massrho*(drx*frx+dry*fry+drz*frz);
        if(ncpress && compute){
          float vfrx=frx*massrho; float vfry=fry*massrho; float vfrz=frz*massrho;
          lcorr.a11+=-drx*vfrx; lcorr.a12+=-drx*vfry; lcorr.a13+=-drx*vfrz;
          lcorr.a21+=-dry*vfrx; lcorr.a22+=-dry*vfry; lcorr.a23+=-dry*vfrz;
          lcorr.a31+=-drz*vfrx; lcorr.a32+=-drz*vfry; lcorr.a33+=-drz*vfrz;
        }
      } //<vs_advshift_end>

      //===== Viscosity ===== 
      if(compute){
        if(mdbc2>=MDBC2_Std && boundp2 && !ftp2){ //<vs_m2dbc_ini>
          const float3 tangentvelp2=tangenvel[p2];
          dvx=velrhop1.x-tangentvelp2.x;
          dvy=velrhop1.y-tangentvelp2.y;
          dvz=velrhop1.z-tangentvelp2.z;
        } //<vs_m2dbc_end>
        const float dot=drx*dvx + dry*dvy + drz*dvz;
        const float dot_rr2=dot/(rr2+CTE.eta2);
        visc=max(dot_rr2,visc);  //ViscDt=max(dot/(rr2+Eta2),ViscDt);
        if(tvisco==VISCO_Artificial){//-Artificial viscosity.
          if(dot<0){
            const float amubar=CTE.kernelh*dot_rr2;  //amubar=CTE.kernelh*dot/(rr2+CTE.eta2);
            const float robar=(velrhop1.w+velrhop2.w)*0.5f;
            const float pi_visc=(-visco*cbar*amubar/robar)*(USE_FLOATING? ftmassp2: massp2);
            acep1.x-=pi_visc*frx; acep1.y-=pi_visc*fry; acep1.z-=pi_visc*frz;
          }
        }
        if(tvisco==VISCO_Laminar || tvisco==VISCO_LaminarSPS){//-Laminar and Laminar+SPS viscosity.
          const float robar2=(velrhop1.w+velrhop2.w);
          const float temp=4.f*visco/((rr2+CTE.eta2)*robar2);  //-Simplication of temp=2.0f*visco/((rr2+CTE.eta2)*robar); robar=(rhopp1+velrhop2.w)*0.5f;
          const float vtemp=(USE_FLOATING? ftmassp2: massp2)*temp*(drx*frx+dry*fry+drz*frz);  
          acep1.x+=vtemp*dvx; acep1.y+=vtemp*dvy; acep1.z+=vtemp*dvz;
        }
        if(tvisco==VISCO_LaminarSPS){//-SPS contribution for Laminar viscosity. 
          //-SPS turbulence model.
          //-Note that taup1 is tau_a/rho_a^2 for interaction of particle a and b.
          //-And taup1 is always zero when p1 is not a fluid particle.
          float2 stau_xx_xy=taup1_xx_xy;
          float2 stau_xz_yy=taup1_xz_yy;
          float2 stau_yz_zz=taup1_yz_zz;
          if(!boundp2 && (USE_NOFLOATING || !ftp2)){//-When p2 is fluid.
            //-Note that taup2 is tau_b/rho_b^2 for interaction of particle a and b.
            float2 taup2=tauff[p2*3];     stau_xx_xy.x+=taup2.x; stau_xx_xy.y+=taup2.y;
                   taup2=tauff[p2*3+1];   stau_xz_yy.x+=taup2.x; stau_xz_yy.y+=taup2.y;
                   taup2=tauff[p2*3+2];   stau_yz_zz.x+=taup2.x; stau_yz_zz.y+=taup2.y;
          }
          acep1.x+=(USE_FLOATING? ftmassp2: massp2)*(stau_xx_xy.x*frx + stau_xx_xy.y*fry + stau_xz_yy.x*frz);
          acep1.y+=(USE_FLOATING? ftmassp2: massp2)*(stau_xx_xy.y*frx + stau_xz_yy.y*fry + stau_yz_zz.x*frz);
          acep1.z+=(USE_FLOATING? ftmassp2: massp2)*(stau_xz_yy.x*frx + stau_yz_zz.x*fry + stau_yz_zz.y*frz);
          //-Velocity gradients.
          if(USE_NOFLOATING || !ftp1){//-When p1 is fluid.
            const float volp2=-(USE_FLOATING? ftmassp2: massp2)/velrhop2.w;
            float dv=dvx*volp2; two_strainp1_xx_xy.x+=dv*frx; two_strainp1_xx_xy.y+=dv*fry; two_strainp1_xz_yy.x+=dv*frz;
                  dv=dvy*volp2; two_strainp1_xx_xy.y+=dv*frx; two_strainp1_xz_yy.y+=dv*fry; two_strainp1_yz_zz.x+=dv*frz;
                  dv=dvz*volp2; two_strainp1_xz_yy.x+=dv*frx; two_strainp1_yz_zz.x+=dv*fry; two_strainp1_yz_zz.y+=dv*frz;
            // to compute tau terms we assume that two_strain.xy=dudy+dvdx, two_strain.xz=dudz+dwdx, two_strain.yz=dvdz+dwdy
            // so only 6 elements are needed instead of 3x3.
          }
        }
      }
    }
  }
}

//------------------------------------------------------------------------------
/// Interaction between particles. Fluid/Float-Fluid/Float or Fluid/Float-Bound.
/// Includes artificial/laminar viscosity and normal/DEM floating bodies.
///
/// Realiza interaccion entre particulas. Fluid/Float-Fluid/Float or Fluid/Float-Bound
/// Incluye visco artificial/laminar y floatings normales/dem.
//------------------------------------------------------------------------------
template<TpKernel tker,TpFtMode ftmode,TpVisco tvisco,TpDensity tdensity
  ,bool shift,TpMdbc2Mode mdbc2
  ,bool shiftadv,bool aleform,bool ncpress,bool divclean> //<vs_advshift> //<vs_divclean>
  __global__ void KerInteractionForcesFluid
  (unsigned n,unsigned pinit,float viscob,float viscof
  ,int scelldiv,int4 nc,int3 cellzero,const int2* begincell,unsigned cellfluid
  ,const unsigned* dcell,const float* ftomassp,const float2* tauff,float2* two_strain
  ,const float3* dengradcorr,const float4* poscell,const float4* velrho
  ,const typecode* code,const unsigned* idp
  ,const byte* boundmode,const float3* tangenvel,const float3* motionvel,const float3* boundnormal //<vs_m2dbc>
  ,float* viscdt,float* ar,float3* ace,float* delta
  ,TpShifting shiftmode,float4* shiftposfs, float4* nopenshift                                 //<vs_advshift>
  ,unsigned* fstype,const float4* shiftvel,bool corrector,bool simulate2d //<vs_advshift>
  ,const float* psiclean,float* psicleanrhs,float* cspsiclean,float divcleankp)  //<vs_divclean>
{
  const unsigned p=blockIdx.x*blockDim.x + threadIdx.x; //-Number of particle.
  if(p<n){
    const unsigned p1=p+pinit;      //-Number of particle.
    float visc=0,arp1=0,deltap1=0;
    float3 acep1=make_float3(0,0,0);

    //-Variables for Shifting.
    float4 shiftposfsp1;
    if(shift)shiftposfsp1=shiftposfs[p1];
    float3 nopenshiftp1 = make_float3(0,0,0); //-no-penetration array
    float3 nopencountp1 = make_float3(0, 0, 0); //-no-penetration array

    //-Variables for Advanced Shifting. //<vs_advshift_ini>
    unsigned neigh=0;
    float fs_treshold=0;
    float pou=0;
    float3 presssym=make_float3(0,0,0);
    float3 pressasym=make_float3(0,0,0);
    tmatrix3f LCorr;      cumath::Tmatrix3fReset(LCorr);
    tmatrix3f LCorr_inv;  cumath::Tmatrix3fReset(LCorr_inv);
    float3 shiftp1=make_float3(0,0,0);
    if(aleform && !CODE_IsFloating(code[p1]))shiftp1=make_float3(shiftvel[p1].x,shiftvel[p1].y,shiftvel[p1].z);

    //-Variable for divergence cleaning.
    float psicleanp1;
    float psicleanr=0;
    if(divclean)psicleanp1=psiclean[p1];

    float Nzero=0;
    if(simulate2d)Nzero=float((3.141592)*CTE.kernelsize2/(CTE.dp*CTE.dp));
    else          Nzero=float((4.f/3.f)*(3.141592)*CTE.kernelsize2*CTE.kernelsize/(CTE.dp*CTE.dp*CTE.dp));
    //<vs_advshift_end>

    //-Obtains data of particle p1 in case there are floating bodies.
    bool ftp1;       //-Indicates if it is floating. | Indica si es floating.
    if(USE_FLOATING){
      const typecode cod=code[p1];
      ftp1=CODE_IsFloating(cod);
      if(ftp1 && tdensity!=DDT_None)deltap1=FLT_MAX; //-DDT is not applied to floating particles.
      if(ftp1 && shift)shiftposfsp1.x=FLT_MAX; //-Shifting is not calculated for floating bodies. | Para floatings no se calcula shifting.
    }

    //-Obtains basic data of particle p1.
    const float4 pscellp1=poscell[p1];
    const float4 velrhop1=velrho[p1];
    const float pressp1=cufsph::ComputePressCte(velrhop1.w);

    //-Variables for Laminar+SPS.
    float2 taup1_xx_xy,taup1_xz_yy,taup1_yz_zz; //-Note that taup1 is tau_a/rho_a^2.
    if(tvisco==VISCO_LaminarSPS){
      taup1_xx_xy=tauff[p1*3];
      taup1_xz_yy=tauff[p1*3+1];
      taup1_yz_zz=tauff[p1*3+2];
    }
    //-Variables for Laminar+SPS (computation).
    float2 two_strainp1_xx_xy,two_strainp1_xz_yy,two_strainp1_yz_zz;
    if(tvisco==VISCO_LaminarSPS){
      two_strainp1_xx_xy=make_float2(0,0);
      two_strainp1_xz_yy=make_float2(0,0);
      two_strainp1_yz_zz=make_float2(0,0);
    }

    //-Obtains neighborhood search limits.
    int ini1,fin1,ini2,fin2,ini3,fin3;
    cunsearch::InitCte(dcell[p1],scelldiv,nc,cellzero,ini1,fin1,ini2,fin2,ini3,fin3);

    //-Interaction with fluids.
    ini3+=cellfluid; fin3+=cellfluid;
    for(int c3=ini3;c3<fin3;c3+=nc.w)for(int c2=ini2;c2<fin2;c2+=nc.x){
      unsigned pini,pfin=0;  cunsearch::ParticleRange(c2,c3,ini1,fin1,begincell,pini,pfin);
      if(pfin){
        KerInteractionForcesFluidBox<tker,ftmode,tvisco,tdensity,shift,mdbc2,shiftadv,aleform,ncpress,divclean>
          (false,p1,pini,pfin,viscof,ftomassp,tauff,dengradcorr,poscell,velrho,code,idp
          ,boundmode,tangenvel,motionvel,boundnormal //<vs_m2dbc>
          ,CTE.massf,ftp1,pscellp1,velrhop1,pressp1,taup1_xx_xy,taup1_xz_yy,taup1_yz_zz
          ,two_strainp1_xx_xy,two_strainp1_xz_yy,two_strainp1_yz_zz,acep1,arp1,visc
          ,deltap1,shiftmode,shiftposfsp1,nopenshiftp1,nopencountp1
          ,fs_treshold,neigh,pou,shiftvel,presssym,pressasym,LCorr,shiftp1 //<vs_advshift>
          ,psiclean,psicleanr,psicleanp1); //<vs_divclean>
      }
    }
    //-Interaction with boundaries.
    ini3-=cellfluid; fin3-=cellfluid;
    for(int c3=ini3;c3<fin3;c3+=nc.w)for(int c2=ini2;c2<fin2;c2+=nc.x){
      unsigned pini,pfin=0;  cunsearch::ParticleRange(c2,c3,ini1,fin1,begincell,pini,pfin);
      if(pfin){
        KerInteractionForcesFluidBox<tker,ftmode,tvisco,tdensity,shift,mdbc2,shiftadv,aleform,ncpress,divclean>
          (true,p1,pini,pfin,viscob,ftomassp,tauff,NULL,poscell,velrho,code,idp
          ,boundmode,tangenvel,motionvel,boundnormal //<vs_m2dbc>
          ,CTE.massb,ftp1,pscellp1,velrhop1,pressp1,taup1_xx_xy,taup1_xz_yy,taup1_yz_zz
          ,two_strainp1_xx_xy,two_strainp1_xz_yy,two_strainp1_yz_zz,acep1,arp1,visc
          ,deltap1,shiftmode,shiftposfsp1,nopenshiftp1,nopencountp1
          ,fs_treshold,neigh,pou,shiftvel,presssym,pressasym,LCorr,shiftp1 //<vs_advshift>
          ,psiclean,psicleanr,psicleanp1);   //<vs_divclean>
      }
    }

    //<vs_advshift_ini>
    pou+=cufsph::GetKernel_Wab<tker>(0.f)*CTE.massf/velrhop1.w;
    if(ncpress){
      if(fstype[p1]==0 && pou>0.95f){
        if(simulate2d){
          tmatrix2f Lcorr2D;
          tmatrix2f Lcorr2D_inv;
          Lcorr2D.a11=LCorr.a11; Lcorr2D.a12=LCorr.a13;
          Lcorr2D.a21=LCorr.a31; Lcorr2D.a22=LCorr.a33;
          float lcorr_det=(Lcorr2D.a11*Lcorr2D.a22-Lcorr2D.a12*Lcorr2D.a21);
          Lcorr2D_inv.a11=Lcorr2D.a22/lcorr_det; Lcorr2D_inv.a12=-Lcorr2D.a12/lcorr_det; Lcorr2D_inv.a22=Lcorr2D.a11/lcorr_det; Lcorr2D_inv.a21=-Lcorr2D.a21/lcorr_det;
          LCorr_inv.a11=Lcorr2D_inv.a11;  LCorr_inv.a13=Lcorr2D_inv.a12;
          LCorr_inv.a31=Lcorr2D_inv.a21;  LCorr_inv.a33=Lcorr2D_inv.a22;
        }
        else{
          const float determ = cumath::Determinant3x3(LCorr);
          LCorr_inv = cumath::InverseMatrix3x3(LCorr, determ);
        }
        acep1.x+=pressasym.x*LCorr_inv.a11 + pressasym.y*LCorr_inv.a12 + pressasym.z*LCorr_inv.a13;
        acep1.y+=pressasym.x*LCorr_inv.a21 + pressasym.y*LCorr_inv.a22 + pressasym.z*LCorr_inv.a23;
        acep1.z+=pressasym.x*LCorr_inv.a31 + pressasym.y*LCorr_inv.a32 + pressasym.z*LCorr_inv.a33;
      }
      else{
        acep1.x+=presssym.x; acep1.y+=presssym.y; acep1.z+=presssym.z;
      }
    }

    if(corrector && shiftadv){
      unsigned fstypep1=0;
      if(simulate2d){
        if(fs_treshold<1.7) fstypep1=2;
        if(fs_treshold<1.1 && Nzero/float(neigh)<0.4f) fstypep1=3;
      } else {
        if(fs_treshold<2.75) fstypep1=2;
        if(fs_treshold<1.8 && Nzero/float(neigh)<0.4f) fstypep1=3;
      }
      fstype[p1]=fstypep1;
    }
    //<vs_advshift_end>

    //-Stores results.
    if(shift||arp1||acep1.x||acep1.y||acep1.z||visc){
      if(tdensity!=DDT_None){
        if(delta){
          const float rdelta=delta[p1];
          delta[p1]=(rdelta==FLT_MAX || deltap1==FLT_MAX? FLT_MAX: rdelta+deltap1);
        }
        else if(deltap1!=FLT_MAX)arp1+=deltap1;
      }
      ar[p1]+=arp1;
      float3 r=ace[p1]; r.x+=acep1.x; r.y+=acep1.y; r.z+=acep1.z; ace[p1]=r;
      if(visc>viscdt[p1])viscdt[p1]=visc;
      if(tvisco==VISCO_LaminarSPS){
        float2 rg;
        rg=two_strain[p1*3  ];  rg=make_float2(rg.x+two_strainp1_xx_xy.x,rg.y+two_strainp1_xx_xy.y);  two_strain[p1*3  ]=rg;
        rg=two_strain[p1*3+1];  rg=make_float2(rg.x+two_strainp1_xz_yy.x,rg.y+two_strainp1_xz_yy.y);  two_strain[p1*3+1]=rg;
        rg=two_strain[p1*3+2];  rg=make_float2(rg.x+two_strainp1_yz_zz.x,rg.y+two_strainp1_yz_zz.y);  two_strain[p1*3+2]=rg;
      }
      if(shift)shiftposfs[p1]=shiftposfsp1;
    }
    //-No-Penetration correction SHABA
    if (mdbc2==MDBC2_NoPen){ //<vs_m2dbcNP_end>
      if(nopencountp1.x>0.f|| nopencountp1.y>0.f|| nopencountp1.z>0.f){
        //-Average correction velocity over number of boundary particles
        if (nopencountp1.x>0.f){//-if correction required x
        nopenshift[p1].x=nopenshiftp1.x/ nopencountp1.x;
        nopenshift[p1].w=10; //-correction needed? yes
        }
        if (nopencountp1.y>0.f){//-if correction required y
            nopenshift[p1].y=nopenshiftp1.y/ nopencountp1.y;
            nopenshift[p1].w=10; //-correction needed? yes
        }
        if (nopencountp1.z>0.f){//-if correction required z
            nopenshift[p1].z=nopenshiftp1.z/ nopencountp1.z;
            nopenshift[p1].w=10; //-correction needed? yes
        }
      }
      else{
        nopenshift[p1].w=0;//-correction needed? no
      }
    }//<vs_m2dbcNP_end>
    
    #ifdef AVAILABLE_DIVCLEAN
    //<vs_divclean_ini>
    if(divclean){
      float cs1=divcleankp*sqrt(fabs(pressp1/velrhop1.w));
      cspsiclean[p1]=cs1;
      psicleanrhs[p1]+=psicleanr-psiclean[p1]*max(cs1,CTE.cs0)/CTE.kernelh;
    }
    //<vs_divclean_end>
    #endif
  }
}

#ifndef DISABLE_BSMODES
//==============================================================================
/// Collects kernel information.
//==============================================================================
template<TpKernel tker,TpFtMode ftmode,TpVisco tvisco,TpDensity tdensity
  ,bool shift,TpMdbc2Mode mdbc2,bool shiftadv,bool aleform,bool ncpress,bool divclean> 
  void Interaction_ForcesT_KerInfo(StKerInfo* kerinfo)
{
 #if CUDART_VERSION >= 6050
  {
    typedef void (*fun_ptr)(unsigned,unsigned,float,float,int,int4,int3
      ,const int2*,unsigned,const unsigned*,const float*,const float2*
      ,float2*,const float3*,const float4*,const float4*,const typecode*
      ,const unsigned*
      ,const byte*,const float3*,const float3*,const float3* //<vs_m2dbc>
      ,float*,float*,float3*,float*,TpShifting,float4*,float4*
      ,unsigned*,const float4*,bool,bool    //<vs_advshift>
      ,const float*,float*,float*,float); //<vs_divclean>
    fun_ptr ptr=&KerInteractionForcesFluid<tker,ftmode,tvisco,tdensity,shift,mdbc2,shiftadv,aleform,ncpress,divclean>;
    int qblocksize=0,mingridsize=0;
    cudaOccupancyMaxPotentialBlockSize(&mingridsize,&qblocksize,(void*)ptr,0,0);
    struct cudaFuncAttributes attr;
    cudaFuncGetAttributes(&attr,(void*)ptr);
    kerinfo->forcesfluid_bs=qblocksize;
    kerinfo->forcesfluid_rg=attr.numRegs;
    kerinfo->forcesfluid_bsmax=attr.maxThreadsPerBlock;
    //printf(">> KerInteractionForcesFluid  blocksize:%u (%u)\n",qblocksize,0);
  }
  {
    typedef void (*fun_ptr)(unsigned,unsigned,int,int4,int3,const int2*
      ,const unsigned*,const float*,const float4*,const float4*
      ,const typecode*,const unsigned*,float*,float*);
    fun_ptr ptr=&KerInteractionForcesBound<tker,ftmode>;
    int qblocksize=0,mingridsize=0;
    cudaOccupancyMaxPotentialBlockSize(&mingridsize,&qblocksize,(void*)ptr,0,0);
    struct cudaFuncAttributes attr;
    cudaFuncGetAttributes(&attr,(void*)ptr);
    kerinfo->forcesbound_bs=qblocksize;
    kerinfo->forcesbound_rg=attr.numRegs;
    kerinfo->forcesbound_bsmax=attr.maxThreadsPerBlock;
    //printf(">> KerInteractionForcesBound  blocksize:%u (%u)\n",qblocksize,0);
  }
  fcuda::Check_CudaErroorFun("Error collecting kernel information.");
 #endif
}
#endif

//==============================================================================
/// Interaction for the force computation.
/// Interaccion para el calculo de fuerzas.
//==============================================================================
template<TpKernel tker,TpFtMode ftmode,TpVisco tvisco,TpDensity tdensity
  ,bool shift,TpMdbc2Mode mdbc2,bool shiftadv,bool aleform,bool ncpress,bool divclean> 
  void Interaction_ForcesGpuT(const StInterParmsg& t)
{
  //-Collects kernel information.
#ifndef DISABLE_BSMODES
  if(t.kerinfo){
    Interaction_ForcesT_KerInfo<tker,ftmode,tvisco,tdensity,shift,mdbc2,shiftadv,aleform,ncpress,divclean>(t.kerinfo);
    return;
  }
#endif
  const StDivDataGpu& dvd=t.divdatag;
  //-Interaction Fluid-Fluid & Fluid-Bound.
  if(t.fluidnum){
    //printf("[ns:%u  id:%d] halo:%d fini:%d(%d) bini:%d(%d)\n",t.nstep,t.id,t.halo,t.fluidini,t.fluidnum,t.boundini,t.boundnum);
    dim3 sgridf=GetSimpleGridSize(t.fluidnum,t.bsfluid);
    KerInteractionForcesFluid<tker,ftmode,tvisco,tdensity,shift,mdbc2,shiftadv,aleform,ncpress,divclean> <<<sgridf,t.bsfluid,0,t.stm>>> 
      (t.fluidnum,t.fluidini,t.viscob,t.viscof,dvd.scelldiv,dvd.nc,dvd.cellzero,dvd.beginendcell,dvd.cellfluid,t.dcell
      ,t.ftomassp,(const float2*)t.spstaurho2,(float2*)t.sps2strain,t.dengradcorr,t.poscell,t.velrho,t.code,t.idp
      ,t.boundmode,t.tangenvel,t.motionvel,t.boundnormal //<vs_m2dbc>
      ,t.viscdt,t.ar,t.ace,t.delta,t.shiftmode,t.shiftposfs,t.nopenshift
      ,t.fstype,t.shiftvel,t.corrector,t.simulate2d  //<vs_advshift>
      ,t.psiclean,t.psicleanrhs,t.cspsiclean,t.divcleankp);        //<vs_divclean>
  }
  //-Interaction Boundary-Fluid.
  if(t.boundnum){
    const int2* beginendcellfluid=dvd.beginendcell+dvd.cellfluid;
    dim3 sgridb=GetSimpleGridSize(t.boundnum,t.bsbound);
    //printf("bsbound:%u\n",bsbound);
    KerInteractionForcesBound<tker,ftmode> <<<sgridb,t.bsbound,0,t.stm>>> 
      (t.boundnum,t.boundini,dvd.scelldiv,dvd.nc,dvd.cellzero,beginendcellfluid,t.dcell
      ,t.ftomassp,t.poscell,t.velrho,t.code,t.idp,t.viscdt,t.ar);
  }
}

// #define FAST_COMPILATION
//==============================================================================
template<TpKernel tker,TpFtMode ftmode,TpVisco tvisco,TpDensity tdensity,bool shift
  ,TpMdbc2Mode mdbc2,bool shiftadv,bool aleform,bool ncpress>
  void Interaction_Forces_gt5(const StInterParmsg& t)
{
  #ifdef AVAILABLE_DIVCLEAN
  if(t.divclean) Interaction_ForcesGpuT<tker,ftmode,tvisco,tdensity,shift,mdbc2,shiftadv,aleform,ncpress,true>(t);
  else           Interaction_ForcesGpuT<tker,ftmode,tvisco,tdensity,shift,mdbc2,shiftadv,aleform,ncpress,false>(t);
  #else 
  Interaction_ForcesGpuT<tker,ftmode,tvisco,tdensity,shift,mdbc2,shiftadv,aleform,ncpress,false>(t);
  #endif
}
//==============================================================================
template<TpKernel tker,TpFtMode ftmode,TpVisco tvisco,TpDensity tdensity,bool shift,TpMdbc2Mode mdbc2>
  void Interaction_Forces_gt4(const StInterParmsg& t)
{
  if(t.shiftadv){
    if(t.aleform){ const bool ale=true;
      if(t.ncpress)Interaction_Forces_gt5<tker,ftmode,tvisco,tdensity,shift,mdbc2,true,ale,true > (t);
      else         Interaction_Forces_gt5<tker,ftmode,tvisco,tdensity,shift,mdbc2,true,ale,false> (t);
    }
    else{          const bool ale=false;
      if(t.ncpress)Interaction_Forces_gt5<tker,ftmode,tvisco,tdensity,shift,mdbc2,true,ale,true > (t);
      else         Interaction_Forces_gt5<tker,ftmode,tvisco,tdensity,shift,mdbc2,true,ale,false> (t);
    }    
  } //<vs_advshift_end>
  else             Interaction_Forces_gt5<tker,ftmode,tvisco,tdensity,shift,mdbc2,false,false,false> (t);
}

//==============================================================================
template<TpKernel tker,TpFtMode ftmode,TpVisco tvisco,TpDensity tdensity,bool shift>
  void Interaction_Forces_gt3(const StInterParmsg& t)
{
  if(t.mdbc2==MDBC2_None) Interaction_Forces_gt4<tker,ftmode,tvisco,tdensity,shift,MDBC2_None>   (t); //<vs_m2dbcNp>
  if(t.mdbc2==MDBC2_Std)  Interaction_Forces_gt4<tker,ftmode,tvisco,tdensity,shift,MDBC2_Std>    (t); //<vs_m2dbcNp>
  if(t.mdbc2==MDBC2_NoPen)Interaction_Forces_gt4<tker,ftmode,tvisco,tdensity,shift,MDBC2_NoPen>  (t); //<vs_m2dbcNp>
}
//==============================================================================
template<TpKernel tker,TpFtMode ftmode,TpVisco tvisco>
  void Interaction_Forces_gt2(const StInterParmsg& t)
{
#ifdef FAST_COMPILATION
  if(t.shiftmode){              const bool shift=true;
    if(t.tdensity==DDT_DDT2Full)Interaction_Forces_gt3<tker,ftmode,tvisco,DDT_DDT2Full,shift> (t);
    else throw "Only DDT==DDT_DDT2Full is compiled for FastCompilation...";
  }
  else{                         const bool shift=false;
    if(t.tdensity==DDT_DDT2Full)Interaction_Forces_gt3<tker,ftmode,tvisco,DDT_DDT2Full,shift> (t);
    else throw "Only DDT==DDT_DDT2Full is compiled for FastCompilation...";
  }
#else
  if(t.shiftmode){              const bool shift=true;
    if(t.tdensity==DDT_None)    Interaction_Forces_gt3<tker,ftmode,tvisco,DDT_None    ,shift> (t);
    if(t.tdensity==DDT_DDT)     Interaction_Forces_gt3<tker,ftmode,tvisco,DDT_DDT     ,shift> (t);
    if(t.tdensity==DDT_DDT2)    Interaction_Forces_gt3<tker,ftmode,tvisco,DDT_DDT2    ,shift> (t);
    if(t.tdensity==DDT_DDT2Full)Interaction_Forces_gt3<tker,ftmode,tvisco,DDT_DDT2Full,shift> (t);
  }
  else{                         const bool shift=false;
    if(t.tdensity==DDT_None)    Interaction_Forces_gt3<tker,ftmode,tvisco,DDT_None    ,shift> (t);
    if(t.tdensity==DDT_DDT)     Interaction_Forces_gt3<tker,ftmode,tvisco,DDT_DDT     ,shift> (t);
    if(t.tdensity==DDT_DDT2)    Interaction_Forces_gt3<tker,ftmode,tvisco,DDT_DDT2    ,shift> (t);
    if(t.tdensity==DDT_DDT2Full)Interaction_Forces_gt3<tker,ftmode,tvisco,DDT_DDT2Full,shift> (t);
  }
#endif
}
//==============================================================================
template<TpKernel tker,TpFtMode ftmode> 
  void Interaction_Forces_gt1(const StInterParmsg& t)
{
#ifdef FAST_COMPILATION
 if(t.tvisco!=VISCO_Artificial)throw "Extra viscosity options are disabled for FastCompilation...";
 Interaction_Forces_gt2<tker,ftmode,VISCO_Artificial> (t);
#else
  if(t.tvisco==VISCO_Artificial)     Interaction_Forces_gt2<tker,ftmode,VISCO_Artificial>(t);
  else if(t.tvisco==VISCO_Laminar)   Interaction_Forces_gt2<tker,ftmode,VISCO_Laminar>   (t);
  else if(t.tvisco==VISCO_LaminarSPS)Interaction_Forces_gt2<tker,ftmode,VISCO_LaminarSPS>(t);
#endif
}
//==============================================================================
template<TpKernel tker> void Interaction_Forces_gt0(const StInterParmsg& t){
#ifdef FAST_COMPILATION
 if(t.ftmode!=FTMODE_None)throw "Extra FtMode options are disabled for FastCompilation...";
 Interaction_Forces_gt1<tker,FTMODE_None> (t);
#else
  if(t.ftmode==FTMODE_None)    Interaction_Forces_gt1<tker,FTMODE_None> (t);
  else if(t.ftmode==FTMODE_Sph)Interaction_Forces_gt1<tker,FTMODE_Sph>  (t);
  else if(t.ftmode==FTMODE_Ext)Interaction_Forces_gt1<tker,FTMODE_Ext>  (t);
#endif
}
//==============================================================================
void Interaction_Forces(const StInterParmsg& t){
#ifdef FAST_COMPILATION
  if(t.tkernel==KERNEL_Wendland)       Interaction_Forces_gt0<KERNEL_Wendland> (t);
  else throw "Only KERNEL_Wendland is compiled for FastCompilation...";
#else
  if(t.tkernel==KERNEL_Wendland)       Interaction_Forces_gt0<KERNEL_Wendland> (t);
 #ifndef DISABLE_KERNELS_EXTRA
  else if(t.tkernel==KERNEL_Cubic)     Interaction_Forces_gt0<KERNEL_Cubic   > (t);
 #endif
#endif
}

//------------------------------------------------------------------------------
/// Returns the corrected position after applying periodic conditions.
/// Devuelve la posicion corregida tras aplicar condiciones periodicas.
//------------------------------------------------------------------------------
__device__ float4 KerComputePosCell(const double3& ps,const double3& mapposmin
  ,float poscellsize)
{
  const double dx=ps.x-mapposmin.x;
  const double dy=ps.y-mapposmin.y;
  const double dz=ps.z-mapposmin.z;
  int cx=int(dx/poscellsize);
  int cy=int(dy/poscellsize);
  int cz=int(dz/poscellsize);
  cx=(cx>=0? cx: 0);
  cy=(cy>=0? cy: 0);
  cz=(cz>=0? cz: 0);
  const float px=float(dx-(double(poscellsize)*cx));
  const float py=float(dy-(double(poscellsize)*cy));
  const float pz=float(dz-(double(poscellsize)*cz));
  const float pw=__uint_as_float(PSCEL_Code(cx,cy,cz));
  return(make_float4(px,py,pz,pw));
}


//##############################################################################
//# Kernels for DEM interaction.
//# Kernels para interaccion DEM.
//##############################################################################
//------------------------------------------------------------------------------
/// DEM interaction of a particle with a set of particles. (Float-Float/Bound)
/// Realiza la interaccion DEM de una particula con un conjunto de ellas. (Float-Float/Bound)
//------------------------------------------------------------------------------
__device__ void KerInteractionForcesDemBox(
  bool boundp2,const unsigned& pini,const unsigned& pfin
  ,const float4* demdata,float dtforce
  ,const float4* poscell,const float4* velrho,const typecode* code
  ,const unsigned* idp,const float4& pscellp1,const float4& velp1
  ,typecode tavp1,float masstotp1,float ftmassp1,float taup1,float kfricp1
  ,float restitup1,float3& acep1,float& demdtp1)
{
  for(int p2=pini;p2<pfin;p2++){
    const typecode codep2=code[p2];
    if(CODE_IsNotFluid(codep2) && tavp1!=CODE_GetTypeAndValue(codep2)){
      const float4 pscellp2=poscell[p2];
      const float drx=pscellp1.x-pscellp2.x + CTE.poscellsize*(PSCEL_GetfX(pscellp1.w)-PSCEL_GetfX(pscellp2.w));
      const float dry=pscellp1.y-pscellp2.y + CTE.poscellsize*(PSCEL_GetfY(pscellp1.w)-PSCEL_GetfY(pscellp2.w));
      const float drz=pscellp1.z-pscellp2.z + CTE.poscellsize*(PSCEL_GetfZ(pscellp1.w)-PSCEL_GetfZ(pscellp2.w));
      const float rr2=drx*drx+dry*dry+drz*drz;
      if(rr2<=CTE.kernelsize2 && rr2>=ALMOSTZERO){
        const float rad=sqrt(rr2);

        //-Computes maximum value of demdt.
        float4 demdatap2=demdata[CODE_GetTypeAndValue(codep2)];
        const float nu_mass=(boundp2? masstotp1/2: masstotp1*demdatap2.x/(masstotp1+demdatap2.x)); //-With boundary takes the actual mass of floating 1. | Con boundary toma la propia masa del floating 1.
        const float kn=4.f/(3.f*(taup1+demdatap2.y))*sqrt(CTE.dp/4); //-Generalized rigidity - Lemieux 2008.
        const float dvx=velp1.x-velrho[p2].x, dvy=velp1.y-velrho[p2].y, dvz=velp1.z-velrho[p2].z; //vji
        const float nx=drx/rad, ny=dry/rad, nz=drz/rad; //-normal_ji             
        const float vn=dvx*nx+dvy*ny+dvz*nz; //-vji.nji    
        const float demvisc=0.2f/(3.21f*(pow(nu_mass/kn,0.4f)*pow(fabs(vn),-0.2f))/40.f);
        if(demdtp1<demvisc)demdtp1=demvisc;

        const float over_lap=1.0f*CTE.dp-rad; //-(ri+rj)-|dij|
        if(over_lap>0.0f){ //-Contact.
          //-Normal.
          const float eij=(restitup1+demdatap2.w)/2;
          const float gn=-(2.f*log(eij)*sqrt(nu_mass*kn))/(sqrt(float(PI)+log(eij)*log(eij))); //-Generalized damping - Cummins 2010.
          //const float gn=0.08f*sqrt(nu_mass*sqrt(CTE.dp/2)/((taup1+demdatap2.y)/2)); //-generalized damping - Lemieux 2008.
          const float rep=kn*pow(over_lap,1.5f);
          const float fn=rep-gn*pow(over_lap,0.25f)*vn;
          float acef=fn/ftmassp1; //-Divides by the mass of particle to obtain the acceleration.
          acep1.x+=(acef*nx); acep1.y+=(acef*ny); acep1.z+=(acef*nz); //-Force is applied in the normal between the particles.
          //-Tangencial.
          const float dvxt=dvx-vn*nx, dvyt=dvy-vn*ny, dvzt=dvz-vn*nz; //Vji_t
          const float vt=sqrt(dvxt*dvxt + dvyt*dvyt + dvzt*dvzt);
          const float tx=(vt!=0? dvxt/vt: 0), ty=(vt!=0? dvyt/vt: 0), tz=(vt!=0? dvzt/vt: 0); //-Tang vel unit vector.
          const float ft_elast=(kn*dtforce-gn)*vt/3.5f; //-Elastic frictional string -->  ft_elast=2*(kn*fdispl-gn*vt)/7; fdispl=dtforce*vt;
          const float kfric_ij=(kfricp1+demdatap2.z)/2;
          float ft=kfric_ij*fn*tanh(vt*8);  //-Coulomb.
          ft=(ft<ft_elast? ft: ft_elast);   //-Not above yield criteria, visco-elastic model.
          acef=ft/ftmassp1; //-Divides by the mass of particle to obtain the acceleration.
          acep1.x+=(acef*tx); acep1.y+=(acef*ty); acep1.z+=(acef*tz);
        }
      }
    }
  }
}

//------------------------------------------------------------------------------
/// Interaction between particles. Fluid/Float-Fluid/Float or Fluid/Float-Bound.
/// Includes artificial/laminar viscosity and normal/DEM floating bodies.
///
/// Realiza interaccion entre particulas. Fluid/Float-Fluid/Float or Fluid/Float-Bound
/// Incluye visco artificial/laminar y floatings normales/dem.
//------------------------------------------------------------------------------
__global__ void KerInteractionForcesDem(unsigned nfloat
  ,int scelldiv,int4 nc,int3 cellzero,const int2* begincell,unsigned cellfluid
  ,const unsigned* dcell,const unsigned* ftridp,const float4* demdata
  ,const float* ftomassp,float dtforce,const float4* poscell,const float4* velrho
  ,const typecode* code,const unsigned* idp,float* viscdt,float3* ace)
{
  const unsigned p=blockIdx.x*blockDim.x + threadIdx.x; //-Number of particle.
  if(p<nfloat){
    const unsigned p1=ftridp[p]; //-Number of particle.
    if(p1!=UINT_MAX){
      float demdtp1=0;
      float3 acep1=make_float3(0,0,0);

      //-Obtains basic data of particle p1.
      const float4 pscellp1=poscell[p1];
      const float4 velp1=velrho[p1];
      const typecode cod=code[p1];
      const typecode tavp1=CODE_GetTypeAndValue(cod);
      const float4 rdata=demdata[tavp1];
      const float masstotp1=rdata.x;
      const float taup1=rdata.y;
      const float kfricp1=rdata.z;
      const float restitup1=rdata.w;
      const float ftmassp1=ftomassp[CODE_GetTypeValue(cod)];

      //-Obtains neighborhood search limits.
      int ini1,fin1,ini2,fin2,ini3,fin3;
      cunsearch::InitCte(dcell[p1],scelldiv,nc,cellzero,ini1,fin1,ini2,fin2,ini3,fin3);

      //-Interaction with boundaries.
      for(int c3=ini3;c3<fin3;c3+=nc.w)for(int c2=ini2;c2<fin2;c2+=nc.x){
        unsigned pini,pfin=0;  cunsearch::ParticleRange(c2,c3,ini1,fin1,begincell,pini,pfin);
        if(pfin)KerInteractionForcesDemBox (true ,pini,pfin,demdata,dtforce,poscell,velrho,code,idp
          ,pscellp1,velp1,tavp1,masstotp1,ftmassp1,taup1,kfricp1,restitup1,acep1,demdtp1);
      }

      //-Interaction with fluids.
      ini3+=cellfluid; fin3+=cellfluid;
      for(int c3=ini3;c3<fin3;c3+=nc.w)for(int c2=ini2;c2<fin2;c2+=nc.x){
        unsigned pini,pfin=0;  cunsearch::ParticleRange(c2,c3,ini1,fin1,begincell,pini,pfin);
        if(pfin)KerInteractionForcesDemBox (false,pini,pfin,demdata,dtforce,poscell,velrho,code,idp
          ,pscellp1,velp1,tavp1,masstotp1,ftmassp1,taup1,kfricp1,restitup1,acep1,demdtp1);
      }

      //-Stores results.
      if(acep1.x || acep1.y || acep1.z || demdtp1){
        float3 r=ace[p1]; r.x+=acep1.x; r.y+=acep1.y; r.z+=acep1.z; ace[p1]=r;
        if(viscdt[p1]<demdtp1)viscdt[p1]=demdtp1;
      }
    }
  }
}

#ifndef DISABLE_BSMODES
//==============================================================================
/// Collects kernel information.
//==============================================================================
void Interaction_ForcesDemT_KerInfo(StKerInfo* kerinfo)
{
#if CUDART_VERSION >= 6050
  {
    typedef void (*fun_ptr)(unsigned,int,int4,int3,const int2*,unsigned,const unsigned*,const unsigned*,const float4*,const float*,float,const float4*,const float4*,const typecode*,const unsigned*,float*,float3*);
    fun_ptr ptr=&KerInteractionForcesDem;
    int qblocksize=0,mingridsize=0;
    cudaOccupancyMaxPotentialBlockSize(&mingridsize,&qblocksize,(void*)ptr,0,0);
    struct cudaFuncAttributes attr;
    cudaFuncGetAttributes(&attr,(void*)ptr);
    kerinfo->forcesdem_bs=qblocksize;
    kerinfo->forcesdem_rg=attr.numRegs;
    kerinfo->forcesdem_bsmax=attr.maxThreadsPerBlock;
    //printf(">> KerInteractionForcesDem  blocksize:%u (%u)\n",qblocksize,0);
  }
  fcuda::Check_CudaErroorFun("Error collecting kernel information.");
#endif
}
#endif

//==============================================================================
/// Interaction for the force computation.
/// Interaccion para el calculo de fuerzas.
//==============================================================================
void Interaction_ForcesDem(unsigned bsize,unsigned nfloat
  ,const StDivDataGpu& dvd,const unsigned* dcell
  ,const unsigned* ftridp,const float4* demdata,const float* ftomassp
  ,float dtforce,const float4* poscell,const float4* velrho
  ,const typecode* code,const unsigned* idp,float* viscdt,float3* ace
  ,StKerInfo* kerinfo,cudaStream_t stm)
{
  const int2* beginendcell=dvd.beginendcell;
  //-Collects kernel information.
#ifndef DISABLE_BSMODES
  if(kerinfo){
    Interaction_ForcesDemT_KerInfo(kerinfo);
    return;
  }
#endif
  //-Interaction Fluid-Fluid & Fluid-Bound.
  if(nfloat){
    dim3 sgrid=GetSimpleGridSize(nfloat,bsize);
    KerInteractionForcesDem <<<sgrid,bsize,0,stm>>> (nfloat
      ,dvd.scelldiv,dvd.nc,dvd.cellzero,beginendcell,dvd.cellfluid,dcell
      ,ftridp,demdata,ftomassp,dtforce,poscell,velrho,code,idp,viscdt,ace);
  }
}


//##############################################################################
//# Kernels for Laminar+SPS.
//##############################################################################
//------------------------------------------------------------------------------
/// Computes sub-particle stress tensor (Tau) for SPS turbulence model.
//------------------------------------------------------------------------------
__global__ void KerComputeSpsTau(unsigned n,unsigned pini,float smag,float blin
  ,const float4* velrho,const float2* sps2strain,float2* tau_rho2)
{
  unsigned p=blockIdx.x*blockDim.x + threadIdx.x; 
  if(p<n){
    const unsigned p1=p+pini;
    float2 rr=sps2strain[p1*3];   const float two_strain_xx=rr.x,two_strain_xy=rr.y;
           rr=sps2strain[p1*3+1]; const float two_strain_xz=rr.x,two_strain_yy=rr.y;
           rr=sps2strain[p1*3+2]; const float two_strain_yz=rr.x,two_strain_zz=rr.y;
    const float pow1=two_strain_xx*two_strain_xx
                   + two_strain_yy*two_strain_yy
                   + two_strain_zz*two_strain_zz;
    const float prr= two_strain_xy*two_strain_xy
                   + two_strain_xz*two_strain_xz
                   + two_strain_yz*two_strain_yz + pow1+pow1;
    const float visc_sps=smag*sqrt(prr);
    const float div_u=two_strain_xx+two_strain_yy+two_strain_zz;
    const float sps_k=visc_sps*div_u; //-Factor 2/3 is included in smag constant.
    const float sps_blin=blin*prr;
    const float sumsps=-(sps_k+sps_blin);
    const float twovisc_sps=(visc_sps+visc_sps);
    float one_rho=1.0f/velrho[p1].w;
    //-Computes new values of tau/rho^2.
    const float tau_xx=one_rho*(twovisc_sps*two_strain_xx +sumsps);
    const float tau_xy=one_rho*(visc_sps   *two_strain_xy);
    tau_rho2[p1*3]=make_float2(tau_xx,tau_xy);
    const float tau_xz=one_rho*(visc_sps   *two_strain_xz);
    const float tau_yy=one_rho*(twovisc_sps*two_strain_yy +sumsps);
    tau_rho2[p1*3+1]=make_float2(tau_xz,tau_yy);
    const float tau_yz=one_rho*(visc_sps   *two_strain_yz);
    const float tau_zz=one_rho*(twovisc_sps*two_strain_zz +sumsps);
    tau_rho2[p1*3+2]=make_float2(tau_yz,tau_zz);
  }
}

//==============================================================================
/// Computes sub-particle stress tensor divided by rho^2 (tau/rho^2) for SPS 
/// turbulence model.   
//==============================================================================
void ComputeSpsTau(unsigned np,unsigned npb,float smag,float blin
  ,const float4* velrho,const tsymatrix3f* sps2strain,tsymatrix3f* tau_rho2
  ,cudaStream_t stm)
{
  const unsigned npf=np-npb;
  if(npf){
    dim3 sgridf=GetSimpleGridSize(npf,SPHBSIZE);
    KerComputeSpsTau <<<sgridf,SPHBSIZE,0,stm>>> (npf,npb,smag,blin,velrho
      ,(const float2*)sps2strain,(float2*)tau_rho2);
  }
}


//##############################################################################
//# Kernels for Delta-SPH.
//# Kernels para Delta-SPH.
//##############################################################################
//------------------------------------------------------------------------------
/// Adds value of delta[] to ar[] provided it is not FLT_MAX.
/// Anhade valor de delta[] a ar[] siempre que no sea FLT_MAX.
//------------------------------------------------------------------------------
__global__ void KerAddDelta(unsigned n,const float* delta,float* ar)
{
  unsigned p=blockIdx.x*blockDim.x + threadIdx.x; //-Number of particle.
  if(p<n){
    float rdelta=delta[p];
    if(rdelta!=FLT_MAX)ar[p]+=rdelta;
  }
}

//==============================================================================
/// Adds value of delta[] to ar[] provided it is not FLT_MAX.
/// Anhade valor de delta[] a ar[] siempre que no sea FLT_MAX.
//==============================================================================
void AddDelta(unsigned n,const float* delta,float* ar,cudaStream_t stm){
  if(n){
    dim3 sgrid=GetSimpleGridSize(n,SPHBSIZE);
    KerAddDelta <<<sgrid,SPHBSIZE,0,stm>>> (n,delta,ar);
  }
}


//##############################################################################
//# Kernels para ComputeStep (position)
//# Kernels for ComputeStep (position)
//##############################################################################
//------------------------------------------------------------------------------
/// Updates particle position according to displacement.
/// Actualizacion de posicion de particulas segun desplazamiento.
//------------------------------------------------------------------------------
template<bool periactive,bool floatings> __global__ void KerComputeStepPos(
  unsigned n,unsigned pini,const double2* movxy,const double* movz
  ,double2* posxy,double* posz,unsigned* dcell,typecode* code)
{
  unsigned pt=blockIdx.x*blockDim.x + threadIdx.x; //-Number of particle.
  if(pt<n){
    unsigned p=pt+pini;
    const typecode rcode=code[p];
    const bool outrhop=CODE_IsOutRho(rcode);
    const bool fluid=(!floatings || CODE_IsFluid(rcode));
    const bool normal=(!periactive || outrhop || CODE_IsNormal(rcode));
    if(normal && fluid){ //-Does not apply to periodic or floating particles. | No se aplica a particulas periodicas o floating.
      const double2 rmovxy=movxy[p];
      KerUpdatePos<periactive>(posxy[p],posz[p],rmovxy.x,rmovxy.y,movz[p],outrhop,p,posxy,posz,dcell,code);
    }
    //-In case of floating maintains the original position.
    //-En caso de floating mantiene la posicion original.
  }
}

//==============================================================================
/// Updates particle position according to displacement.
/// Actualizacion de posicion de particulas segun desplazamiento.
//==============================================================================
void ComputeStepPos(byte periactive,bool floatings,unsigned np,unsigned npb
  ,const double2* movxy,const double* movz
  ,double2* posxy,double* posz,unsigned* dcell,typecode* code)
{
  const unsigned pini=npb;
  const unsigned npf=np-pini;
  if(npf){
    dim3 sgrid=GetSimpleGridSize(npf,SPHBSIZE);
    if(periactive){ const bool peri=true;
      if(floatings)KerComputeStepPos<peri,true>  <<<sgrid,SPHBSIZE>>> (npf,pini,movxy,movz,posxy,posz,dcell,code);
      else         KerComputeStepPos<peri,false> <<<sgrid,SPHBSIZE>>> (npf,pini,movxy,movz,posxy,posz,dcell,code);
    }
    else{ const bool peri=false;
      if(floatings)KerComputeStepPos<peri,true>  <<<sgrid,SPHBSIZE>>> (npf,pini,movxy,movz,posxy,posz,dcell,code);
      else         KerComputeStepPos<peri,false> <<<sgrid,SPHBSIZE>>> (npf,pini,movxy,movz,posxy,posz,dcell,code);
    }
  }
}

//------------------------------------------------------------------------------
/// Updates particle position according to displacement.
/// Actualizacion de posicion de particulas segun desplazamiento.
//------------------------------------------------------------------------------
template<bool periactive,bool floatings> __global__ void KerComputeStepPos2(
  unsigned n,unsigned pini,const double2* posxypre,const double* poszpre
  ,const double2* movxy,const double* movz,double2* posxy,double* posz
  ,unsigned* dcell,typecode* code)
{
  unsigned pt=blockIdx.x*blockDim.x + threadIdx.x; //-Number of particle.
  if(pt<n){
    unsigned p=pt+pini;
    const typecode rcode=code[p];
    const bool outrhop=CODE_IsOutRho(rcode);
    const bool fluid=(!floatings || CODE_IsFluid(rcode));
    const bool normal=(!periactive || outrhop || CODE_IsNormal(rcode));
    if(normal){//-Does not apply to periodic particles. | No se aplica a particulas periodicas
      if(fluid){//-Only applied for fluid displacement. | Solo se aplica desplazamiento al fluido.
        const double2 rmovxy=movxy[p];
        KerUpdatePos<periactive>(posxypre[p],poszpre[p],rmovxy.x,rmovxy.y,movz[p],outrhop,p,posxy,posz,dcell,code);

      }
      else{ //-Copy position of floating particles.
        posxy[p]=posxypre[p];
        posz[p]=poszpre[p];
      }
    }
  }
}

//==============================================================================
/// Updates particle position according to displacement.
/// Actualizacion de posicion de particulas segun desplazamiento.
//==============================================================================
void ComputeStepPos2(byte periactive,bool floatings,unsigned np,unsigned npb
  ,const double2* posxypre,const double* poszpre,const double2* movxy
  ,const double* movz,double2* posxy,double* posz,unsigned* dcell,typecode* code)
{
  const unsigned pini=npb;
  const unsigned npf=np-pini;
  if(npf){
    dim3 sgrid=GetSimpleGridSize(npf,SPHBSIZE);
    if(periactive){ const bool peri=true;
      if(floatings)KerComputeStepPos2<peri,true>  <<<sgrid,SPHBSIZE>>> (npf,pini,posxypre,poszpre,movxy,movz,posxy,posz,dcell,code);
      else         KerComputeStepPos2<peri,false> <<<sgrid,SPHBSIZE>>> (npf,pini,posxypre,poszpre,movxy,movz,posxy,posz,dcell,code);
    }
    else{ const bool peri=false;
      if(floatings)KerComputeStepPos2<peri,true>  <<<sgrid,SPHBSIZE>>> (npf,pini,posxypre,poszpre,movxy,movz,posxy,posz,dcell,code);
      else         KerComputeStepPos2<peri,false> <<<sgrid,SPHBSIZE>>> (npf,pini,posxypre,poszpre,movxy,movz,posxy,posz,dcell,code);
    }
  }
}



//##############################################################################
//# Kernels for motion.
//# Kernels para Motion
//##############################################################################
//------------------------------------------------------------------------------
/// Computes for a range of particles, their position according to idp[].
/// Calcula para un rango de particulas calcula su posicion segun idp[].
//------------------------------------------------------------------------------
__global__ void KerCalcRidp(unsigned n,unsigned ini,unsigned idini,unsigned idfin
  ,const typecode* code,const unsigned* idp,unsigned* ridp)
{
  unsigned p=blockIdx.x*blockDim.x + threadIdx.x; //-Number of particle.
  if(p<n){
    p+=ini;
    unsigned id=idp[p];
    if(idini<=id && id<idfin){
      if(CODE_IsNormal(code[p]))ridp[id-idini]=p;
    }
  }
}
//------------------------------------------------------------------------------
__global__ void KerCalcRidp(unsigned n,unsigned ini,unsigned idini,unsigned idfin
  ,const unsigned* idp,unsigned* ridp)
{
  unsigned p=blockIdx.x*blockDim.x + threadIdx.x; //-Number of particle.
  if(p<n){
    p+=ini;
    const unsigned id=idp[p];
    if(idini<=id && id<idfin)ridp[id-idini]=p;
  }
}

//==============================================================================
/// Calculate particle position according to idp[]. When it does not find UINT_MAX.
/// When periactive is false it means there are no duplicate particles (periodic)
/// and all are CODE_NORMAL.
///
/// Calcula posicion de particulas segun idp[]. Cuando no la encuentra es UINT_MAX.
/// Cuando periactive es False sumpone que no hay particulas duplicadas (periodicas)
/// y todas son CODE_NORMAL.
//==============================================================================
void CalcRidp(bool periactive,unsigned np,unsigned pini,unsigned idini
  ,unsigned idfin,const typecode* code,const unsigned* idp,unsigned* ridp
  ,cudaStream_t stm)
{
  //-Assigns values UINT_MAX
  const unsigned nsel=idfin-idini;
  cudaMemset(ridp,255,sizeof(unsigned)*nsel); 
  //-Computes position according to id. | Calcula posicion segun id.
  if(np){
    dim3 sgrid=GetSimpleGridSize(np,SPHBSIZE);
    if(periactive)KerCalcRidp <<<sgrid,SPHBSIZE,0,stm>>> (np,pini,idini,idfin,code,idp,ridp);
    else          KerCalcRidp <<<sgrid,SPHBSIZE,0,stm>>> (np,pini,idini,idfin,idp,ridp);
  }
}


//------------------------------------------------------------------------------
/// Load current reference position data from particle data.
//------------------------------------------------------------------------------
__global__ void KerLoadPosRef(unsigned pscount,unsigned casenfixed,unsigned np
  ,const double2* posxy,const double* posz,const unsigned* ridpmot
  ,const unsigned* idpref,double3* posref)
{
  unsigned cp=blockIdx.x*blockDim.x + threadIdx.x;
  if(cp<pscount){
[...]
      boundnornewp.z=rot.a31*boundnor0p.x+rot.a32*boundnor0p.y+rot.a33*boundnor0p.z;
      const float mag0=sqrt(boundnor0p.x*boundnor0p.x+boundnor0p.y*boundnor0p.y+boundnor0p.z*boundnor0p.z);
      const float magnew=sqrt(boundnornewp.x*boundnornewp.x+boundnornewp.y*boundnornewp.y+boundnornewp.z*boundnornewp.z);
      boundnornewp.x*=mag0/magnew; boundnornewp.y*=mag0/magnew; boundnornewp.z*=mag0/magnew;
      boundnor[flexstrucridp[p]]=boundnornewp;
    }
  }
}

//==============================================================================
/// Updates the geometric information for each flexible structure particle.
/// Actualiza la informacin geomtrica de cada partcula de estructura flexible.
//==============================================================================
void UpdateFlexStrucGeometry(const StInterParmsFlexStrucg& tfs){
#ifdef FAST_COMPILATION
  if(tfs.tkernel!=KERNEL_Wendland)throw "Extra kernels are disabled for FastCompilation...";
  CalcFlexStrucDefGrad_ct0<KERNEL_Wendland> (tfs);
#else
  if(tfs.tkernel==KERNEL_Wendland)  CalcFlexStrucDefGrad_ct0<KERNEL_Wendland>(tfs);
#ifndef DISABLE_KERNELS_EXTRA
  else if(tfs.tkernel==KERNEL_Cubic)CalcFlexStrucDefGrad_ct0<KERNEL_Cubic>   (tfs);
#endif
#endif
  if(tfs.vnpfs&&tfs.mdbc2>=MDBC2_Std){
    dim3 sgridb=GetSimpleGridSize(tfs.vnpfs,SPHBSIZE);
    KerCalcFlexStrucNormals <<<sgridb,SPHBSIZE,0,tfs.stm>>>(tfs.vnpfs,tfs.flexstrucridp,tfs.defgrad,tfs.boundnor0,tfs.boundnor);
  }
}

//==============================================================================
/// Calculates the PK1 stress matrix for each flexible structure particle.
/// Calcula la matriz de tensin PK1 para cada partcula de estructura flexible.
//==============================================================================
__device__ tmatrix3f KerCalcFlexStrucPK1Stress(const tmatrix3f& defgrad,const tmatrix6f& cmat)
{
  //-Calculate Green-Lagrange strain from deformation gradient.
  tmatrix3f gl=cumath::MulMatrix3x3(cumath::TrasMatrix3x3(defgrad),defgrad);
  gl.a11-=1.0f; gl.a22-=1.0f; gl.a33-=1.0f;
  gl.a11*=0.5f; gl.a12*=0.5f; gl.a13*=0.5f;
  gl.a21*=0.5f; gl.a22*=0.5f; gl.a23*=0.5f;
  gl.a31*=0.5f; gl.a32*=0.5f; gl.a33*=0.5f;
  //-Convert to Voigt notation.
  const float gl_1=gl.a11;
  const float gl_2=gl.a22;
  const float gl_3=gl.a33;
  const float gl_4=gl.a23+gl.a32;
  const float gl_5=gl.a31+gl.a13;
  const float gl_6=gl.a12+gl.a21;
  //-Multiply with stiffness tensor to get PK2 stress in Voigt form.
  const float pk2_1=cmat.a11*gl_1+cmat.a12*gl_2+cmat.a13*gl_3+cmat.a14*gl_4+cmat.a15*gl_5+cmat.a16*gl_6;
  const float pk2_2=cmat.a21*gl_1+cmat.a22*gl_2+cmat.a23*gl_3+cmat.a24*gl_4+cmat.a25*gl_5+cmat.a26*gl_6;
  const float pk2_3=cmat.a31*gl_1+cmat.a32*gl_2+cmat.a33*gl_3+cmat.a34*gl_4+cmat.a35*gl_5+cmat.a36*gl_6;
  const float pk2_4=cmat.a41*gl_1+cmat.a42*gl_2+cmat.a43*gl_3+cmat.a44*gl_4+cmat.a45*gl_5+cmat.a46*gl_6;
  const float pk2_5=cmat.a51*gl_1+cmat.a52*gl_2+cmat.a53*gl_3+cmat.a54*gl_4+cmat.a55*gl_5+cmat.a56*gl_6;
  const float pk2_6=cmat.a61*gl_1+cmat.a62*gl_2+cmat.a63*gl_3+cmat.a64*gl_4+cmat.a65*gl_5+cmat.a66*gl_6;
  //-Convert PK2 stress back to normal notation.
  const tmatrix3f pk2={pk2_1,pk2_6,pk2_5,pk2_6,pk2_2,pk2_4,pk2_5,pk2_4,pk2_3};
  //-Convert PK2 to PK1 and return.
  return cumath::MulMatrix3x3(defgrad,pk2);
}

//==============================================================================
/// Interaction forces for the flexible structure particles.
/// Fuerzas de interaccin para las partculas de estructura flexible.
//==============================================================================
template<TpKernel tker,TpVisco tvisco,TpMdbc2Mode mdbc2> __global__ void KerInteractionForcesFlexStruc(unsigned n,float visco
    ,int scelldiv,int4 nc,int3 cellzero,const int2* beginendcellfluid,const unsigned* dcell
    ,const float4* poscell,const float4* velrhop,const typecode* code
    ,const byte* boundmode,const float3* tangenvel
    ,const StFlexStrucData* flexstrucdata,const unsigned* flexstrucridp
    ,const float4* poscell0,const unsigned* numpairs,const unsigned* const* pairidx,const tmatrix3f* kercorr,const tmatrix3f* defgrad
    ,float* flexstrucdt,float3* ace)
{
  const unsigned p=blockIdx.x*blockDim.x + threadIdx.x; //-Number of thread.
  if(p<n){
    const unsigned pfs1=p;      //-Number of particle.
    const unsigned p1=flexstrucridp[pfs1];

    //-Get codep1.
    const typecode codep1=code[p1];
    if(CODE_IsFlexStrucFlex(codep1)){
      float3 acep1=make_float3(0,0,0);

      //-Obtains basic data of particle p1.
      const float4 pscellp1=poscell[p1];
      float4 velrhop1=velrhop[p1];
      const float pressp1=cufsph::ComputePressCte(velrhop1.w);
      const float4 pscell0p1=poscell0[pfs1];
      const tmatrix3f kercorrp1=kercorr[pfs1];
      const tmatrix3f defgradp1=defgrad[pfs1];

      //-Obtains flexible structure data.
      const float vol0p1=flexstrucdata[CODE_GetIbodyFlexStruc(codep1)].vol0;
      const float rho0p1=flexstrucdata[CODE_GetIbodyFlexStruc(codep1)].rho0;
      const float youngmod=flexstrucdata[CODE_GetIbodyFlexStruc(codep1)].youngmod;
      const float poissratio=flexstrucdata[CODE_GetIbodyFlexStruc(codep1)].poissratio;
      const float hgfactor=flexstrucdata[CODE_GetIbodyFlexStruc(codep1)].hgfactor;
      const tmatrix6f cmat=flexstrucdata[CODE_GetIbodyFlexStruc(codep1)].cmat;
      const tmatrix3f pk1p1=KerCalcFlexStrucPK1Stress(defgradp1,cmat);
      const tmatrix3f pk1kercorrp1=cumath::MulMatrix3x3(pk1p1,kercorrp1);

      //-Get current mass of flexible structure particle.
      const float mass0p1=vol0p1*rho0p1;
      const float rhop1=rho0p1/cumath::Determinant3x3(defgradp1);

      //-Calculate structural speed of sound.
      const float csp1=sqrt(youngmod*(1.0-poissratio)/(rhop1*(1.0+poissratio)*(1.0-2.0*poissratio)));

      //-Modify values if using mDBC.
      float massp2=CTE.massf;
      if(mdbc2>=MDBC2_Std){
        if(boundmode[p1]==BMODE_MDBC2OFF)massp2=0;
        const float3 tangentvelp1=tangenvel[p1];
        velrhop1.x=tangentvelp1.x;
        velrhop1.y=tangentvelp1.y;
        velrhop1.z=tangentvelp1.z;
      }

      //-Obtains neighborhood search limits.
      int ini1,fin1,ini2,fin2,ini3,fin3;
      cunsearch::InitCte(dcell[p1],scelldiv,nc,cellzero,ini1,fin1,ini2,fin2,ini3,fin3);

      //-Flexible structure-Fluid interaction.
      for(int c3=ini3;c3<fin3;c3+=nc.w){
        for(int c2=ini2;c2<fin2;c2+=nc.x){
          unsigned pini,pfin=0;  cunsearch::ParticleRange(c2,c3,ini1,fin1,beginendcellfluid,pini,pfin);
          if(pfin){
            for(int p2=pini;p2<pfin;p2++){
              if(CODE_IsFluid(code[p2])){
                const float4 pscellp2=poscell[p2];
                const float drx=pscellp1.x-pscellp2.x+CTE.poscellsize*(PSCEL_GetfX(pscellp1.w)-PSCEL_GetfX(pscellp2.w));
                const float dry=pscellp1.y-pscellp2.y+CTE.poscellsize*(PSCEL_GetfY(pscellp1.w)-PSCEL_GetfY(pscellp2.w));
                const float drz=pscellp1.z-pscellp2.z+CTE.poscellsize*(PSCEL_GetfZ(pscellp1.w)-PSCEL_GetfZ(pscellp2.w));
                const float rr2=drx*drx+dry*dry+drz*drz;
                if(rr2<=CTE.kernelsize2&&rr2>=ALMOSTZERO){
                  //-Computes kernel.
                  const float fac=cufsph::GetKernel_Fac<tker>(rr2);
                  const float frx=fac*drx,fry=fac*dry,frz=fac*drz; //-Gradients.
                  //-Obtains velocity of particle p2 and compute difference.
                  const float4 velrhop2=velrhop[p2];
                  const float dvx=velrhop1.x-velrhop2.x,dvy=velrhop1.y-velrhop2.y,dvz=velrhop1.z-velrhop2.z;
                  //-Pressure derivative (Momentum equation).
                  const float pressp2=cufsph::ComputePressCte(velrhop2.w);
                  const float prs=(pressp1+pressp2)/(velrhop1.w*velrhop2.w)+(tker==KERNEL_Cubic?cufsph::GetKernelCubic_Tensil(rr2,velrhop1.w,pressp1,velrhop2.w,pressp2):0);
                  const float p_vpm=-prs*massp2*(CTE.massf/mass0p1);
                  acep1.x+=p_vpm*frx; acep1.y+=p_vpm*fry; acep1.z+=p_vpm*frz;                  
                  //-Artificial viscosity.
                  if(tvisco==VISCO_Artificial){
                    const float dot=drx*dvx+dry*dvy+drz*dvz;
                    if(dot<0){
                      const float dot_rr2=dot/(rr2+CTE.eta2);
                      const float amubar=CTE.kernelh*dot_rr2;
                      const float robar=(velrhop1.w+velrhop2.w)*0.5f;
                      const float pi_visc=(-visco*CTE.cs0*amubar/robar)*massp2*(CTE.massf/mass0p1);
                      acep1.x-=pi_visc*frx; acep1.y-=pi_visc*fry; acep1.z-=pi_visc*frz;
                    }
                  }
                  //-Laminar viscosity.
                  else{
                    const float robar2=(velrhop1.w+velrhop2.w);
                    const float temp=4.f*visco/((rr2+CTE.eta2)*robar2);
                    const float vtemp=massp2*temp*(drx*frx+dry*fry+drz*frz)*(CTE.massf/mass0p1);
                    acep1.x+=vtemp*dvx; acep1.y+=vtemp*dvy; acep1.z+=vtemp*dvz;
                  }
                }
              }
            }
          }
        }
      }

      //-Loop through pairs and calculate forces.
      for(unsigned pair=0;pair<numpairs[pfs1];pair++){
        const unsigned pfs2=pairidx[pfs1][pair];
        const float4 pscell0p2=poscell0[pfs2];
        float drx0=pscell0p1.x-pscell0p2.x+CTE.poscellsize*(PSCEL_GetfX(pscell0p1.w)-PSCEL_GetfX(pscell0p2.w));
        float dry0=pscell0p1.y-pscell0p2.y+CTE.poscellsize*(PSCEL_GetfY(pscell0p1.w)-PSCEL_GetfY(pscell0p2.w));
        float drz0=pscell0p1.z-pscell0p2.z+CTE.poscellsize*(PSCEL_GetfZ(pscell0p1.w)-PSCEL_GetfZ(pscell0p2.w));
        const float rr20=drx0*drx0+dry0*dry0+drz0*drz0;
        const float fac0=cufsph::GetKernel_Fac<tker>(rr20);
        const float frx0=fac0*drx0,fry0=fac0*dry0,frz0=fac0*drz0; //-Gradients.
        //-Acceleration due to structure.
        const tmatrix3f defgradp2=defgrad[pfs2];
        const tmatrix3f pk1p2=KerCalcFlexStrucPK1Stress(defgradp2,cmat);
        const tmatrix3f kercorrp2=kercorr[pfs2];
        const tmatrix3f pk1kercorrp2=cumath::MulMatrix3x3(pk1p2,kercorrp2);
        tmatrix3f pk1kercorrp1p2;
        pk1kercorrp1p2.a11=pk1kercorrp1.a11+pk1kercorrp2.a11; pk1kercorrp1p2.a12=pk1kercorrp1.a12+pk1kercorrp2.a12; pk1kercorrp1p2.a13=pk1kercorrp1.a13+pk1kercorrp2.a13;
        pk1kercorrp1p2.a21=pk1kercorrp1.a21+pk1kercorrp2.a21; pk1kercorrp1p2.a22=pk1kercorrp1.a22+pk1kercorrp2.a22; pk1kercorrp1p2.a23=pk1kercorrp1.a23+pk1kercorrp2.a23;
        pk1kercorrp1p2.a31=pk1kercorrp1.a31+pk1kercorrp2.a31; pk1kercorrp1p2.a32=pk1kercorrp1.a32+pk1kercorrp2.a32; pk1kercorrp1p2.a33=pk1kercorrp1.a33+pk1kercorrp2.a33;
        float3 pk1kercorrdw;
        pk1kercorrdw.x=pk1kercorrp1p2.a11*frx0+pk1kercorrp1p2.a12*fry0+pk1kercorrp1p2.a13*frz0;
        pk1kercorrdw.y=pk1kercorrp1p2.a21*frx0+pk1kercorrp1p2.a22*fry0+pk1kercorrp1p2.a23*frz0;
        pk1kercorrdw.z=pk1kercorrp1p2.a31*frx0+pk1kercorrp1p2.a32*fry0+pk1kercorrp1p2.a33*frz0;
        acep1.x+=pk1kercorrdw.x*vol0p1/rho0p1; acep1.y+=pk1kercorrdw.y*vol0p1/rho0p1; acep1.z+=pk1kercorrdw.z*vol0p1/rho0p1;
        //-Hourglass correction.
        if(hgfactor){
          const unsigned p2=flexstrucridp[pfs2];
          const float4 pscellp2=poscell[p2];
          float drx=pscellp1.x-pscellp2.x + CTE.poscellsize*(PSCEL_GetfX(pscellp1.w)-PSCEL_GetfX(pscellp2.w));
          float dry=pscellp1.y-pscellp2.y + CTE.poscellsize*(PSCEL_GetfY(pscellp1.w)-PSCEL_GetfY(pscellp2.w));
          float drz=pscellp1.z-pscellp2.z + CTE.poscellsize*(PSCEL_GetfZ(pscellp1.w)-PSCEL_GetfZ(pscellp2.w));
          const float rr2=drx*drx+dry*dry+drz*drz;
          const float wab=cufsph::GetKernel_Wab<tker>(rr2);
          const float xijbarx=defgradp1.a11*drx0+defgradp1.a12*dry0+defgradp1.a13*drz0;
          const float xijbary=defgradp1.a21*drx0+defgradp1.a22*dry0+defgradp1.a23*drz0;
          const float xijbarz=defgradp1.a31*drx0+defgradp1.a32*dry0+defgradp1.a33*drz0;
          const float xjibarx=-(defgradp2.a11*drx0+defgradp2.a12*dry0+defgradp2.a13*drz0);
          const float xjibary=-(defgradp2.a21*drx0+defgradp2.a22*dry0+defgradp2.a23*drz0);
          const float xjibarz=-(defgradp2.a31*drx0+defgradp2.a32*dry0+defgradp2.a33*drz0);
          const float3 epsij=make_float3(drx-xijbarx,dry-xijbary,drz-xijbarz);
          const float3 epsji=make_float3(-drx-xjibarx,-dry-xjibary,-drz-xjibarz);
          const float rr=sqrt(rr2);
          const float deltaij=(epsij.x*drx+epsij.y*dry+epsij.z*drz)/rr;
          const float deltaji=-(epsji.x*drx+epsji.y*dry+epsji.z*drz)/rr;
          const float mulfac=(hgfactor*vol0p1*vol0p1*wab*youngmod/(rr20*rr*mass0p1)*0.5f*(deltaij+deltaji));
          acep1.x-=mulfac*drx; acep1.y-=mulfac*dry; acep1.z-=mulfac*drz;
        }
      }

      //-Store results.
      if(acep1.x||acep1.y||acep1.z||csp1){
        float3 r=ace[p1]; r.x+=acep1.x; r.y+=acep1.y; r.z+=acep1.z; ace[p1]=r;
        if(csp1>flexstrucdt[pfs1])flexstrucdt[pfs1]=csp1;
      }
    }
  }
}

//==============================================================================
/// Interaction forces for the flexible structure particles.
/// Fuerzas de interaccin para las partculas de estructura flexible.
//==============================================================================
template<TpKernel tker,TpVisco tvisco,TpMdbc2Mode mdbc2> void Interaction_ForcesFlexStrucT(const StInterParmsFlexStrucg& tfs){
  if(tfs.vnpfs){
    const StDivDataGpu& dvd=tfs.divdatag;
    dim3 sgridb=GetSimpleGridSize(tfs.vnpfs,SPHBSIZE);
    KerInteractionForcesFlexStruc<tker,tvisco,mdbc2> <<<sgridb,SPHBSIZE,0,tfs.stm>>>
        (tfs.vnpfs,tfs.viscob,dvd.scelldiv,dvd.nc,dvd.cellzero,dvd.beginendcell+dvd.cellfluid,tfs.dcell,tfs.poscell,tfs.velrhop,tfs.code,tfs.boundmode,tfs.tangenvel,tfs.flexstrucdata,tfs.flexstrucridp,tfs.poscell0,tfs.numpairs,tfs.pairidx,tfs.kercorr,tfs.defgrad,tfs.flexstrucdt,tfs.ace);
  }
}

//==============================================================================
/// Interaction forces for the flexible structure particles.
/// Fuerzas de interaccin para las partculas de estructura flexible.
//==============================================================================
template<TpKernel tker,TpVisco tvisco> void Interaction_ForcesFlexStruc_gt1(const StInterParmsFlexStrucg& tfs){
#ifdef FAST_COMPILATION
  if(tfs.mdbc2!=MDBC2_None)throw "Extra mDBC options are disabled for FastCompilation...";
  Interaction_ForcesFlexStrucT<tker,tvisco,MDBC2_None>(tfs);
#else
  if(tfs.mdbc2==MDBC2_None)      Interaction_ForcesFlexStrucT<tker,tvisco,MDBC2_None> (tfs);
  else if(tfs.mdbc2==MDBC2_Std)  Interaction_ForcesFlexStrucT<tker,tvisco,MDBC2_Std>  (tfs);
  else if(tfs.mdbc2==MDBC2_NoPen)Interaction_ForcesFlexStrucT<tker,tvisco,MDBC2_NoPen>(tfs);
#endif
}

//==============================================================================
/// Interaction forces for the flexible structure particles.
/// Fuerzas de interaccin para las partculas de estructura flexible.
//==============================================================================
template<TpKernel tker> void Interaction_ForcesFlexStruc_gt0(const StInterParmsFlexStrucg& tfs){
#ifdef FAST_COMPILATION
  if(tfs.tvisco!=VISCO_Artificial)throw "Extra viscosity options are disabled for FastCompilation...";
  Interaction_ForcesFlexStruc_gt1<tker,VISCO_Artificial> (tfs);
#else
  if(tfs.tvisco==VISCO_Artificial)     Interaction_ForcesFlexStruc_gt1<tker,VISCO_Artificial>(tfs);
  else if(tfs.tvisco==VISCO_Laminar)   Interaction_ForcesFlexStruc_gt1<tker,VISCO_Laminar>   (tfs);
  else if(tfs.tvisco==VISCO_LaminarSPS)Interaction_ForcesFlexStruc_gt1<tker,VISCO_LaminarSPS>(tfs);
#endif
}

//==============================================================================
/// Interaction forces for the flexible structure particles.
/// Fuerzas de interaccin para las partculas de estructura flexible.
//==============================================================================
void Interaction_ForcesFlexStruc(const StInterParmsFlexStrucg& tfs){
#ifdef FAST_COMPILATION
  if(tfs.tkernel!=KERNEL_Wendland)throw "Extra kernels are disabled for FastCompilation...";
  Interaction_ForcesFlexStruc_gt0<KERNEL_Wendland> (tfs);
#else
  if(tfs.tkernel==KERNEL_Wendland)  Interaction_ForcesFlexStruc_gt0<KERNEL_Wendland>(tfs);
#ifndef DISABLE_KERNELS_EXTRA
  else if(tfs.tkernel==KERNEL_Cubic)Interaction_ForcesFlexStruc_gt0<KERNEL_Cubic>   (tfs);
#endif
#endif
}

//==============================================================================
/// Updates particle position according to displacement.
/// Actualizacion de posicion de particulas segun desplazamiento.
//==============================================================================
__global__ void KerComputeStepPosFlexStruc(unsigned n,const unsigned* flexstrucridp
    ,const double2* posxypre,const double* poszpre,const double2* movxy,const double* movz
    ,double2* posxy,double* posz,unsigned* dcell,typecode* code)
{
  unsigned pt=blockIdx.x*blockDim.x + threadIdx.x; //-Number of particle.
  if(pt<n){
    unsigned p=flexstrucridp[pt];
    const typecode rcode=code[p];
    const bool outrhop=CODE_IsOutRho(rcode);
    const bool flexstruc=CODE_IsFlexStrucFlex(rcode);
    const bool normal=(outrhop || CODE_IsNormal(rcode));
    if(normal && flexstruc){
      const double2 rmovxy=movxy[p];
      KerUpdatePos<false>(posxypre[p],poszpre[p],rmovxy.x,rmovxy.y,movz[p],outrhop,p,posxy,posz,dcell,code);  // Periodic not implemented yet.
    }
  }
}

//==============================================================================
/// Updates particle position according to displacement.
/// Actualizacion de posicion de particulas segun desplazamiento.
//==============================================================================
void ComputeStepPosFlexStruc(unsigned npfs,const unsigned* flexstrucridp
    ,const double2* posxypre,const double* poszpre,const double2* movxy,const double* movz
    ,double2* posxy,double* posz,unsigned* dcell,typecode* code)
{
  if(npfs){
    dim3 sgrid=GetSimpleGridSize(npfs,SPHBSIZE);
    KerComputeStepPosFlexStruc <<<sgrid,SPHBSIZE>>> (npfs,flexstrucridp,posxypre,poszpre,movxy,movz,posxy,posz,dcell,code);
  }
}

//==============================================================================
/// Checks if any issues with FlexStruc particle update.
/// Comprueba si hay algn problema con la actualizacin de partculas FlexStruc.
//==============================================================================
bool FlexStrucStepIsValid(unsigned npb,const typecode* code){
  if(npb){
    thrust::device_ptr<const typecode> dev_code(code);
    return !thrust::any_of(dev_code,dev_code+npb,FlexStrucAnyIsOut());
  }
  return true;
}
//<vs_flexstruc_end>

}


//##############################################################################
//# Kernels for InOut (JSphInOut).
//# Kernels para InOut (JSphInOut).
//##############################################################################
#include "JSphGpu_InOut_iker.cu"


//##############################################################################
//# Kernels for mDBC and mDBC2.
//# Kernels para mDBC y mDBC2.
//##############################################################################
#include "JSphGpu_mdbc_iker.cu"


//##############################################################################
//# Kernels for PreLoop and Advanced shifting.
//# Kernels para PreLoop y Advanced shifting.
//##############################################################################
#include "JSphGpu_preloop_iker.cu"

//##############################################################################
//# Kernels for variable resolution (JSphVRes).
//# Kernels para variable resolution (JSphVRes).
//##############################################################################

#include "JSphGpu_VRes_iker.cu"

