#DualSPHysics CPU v4.4.035 13-12-2019

#=============== Compilation Options (YES/NO) ===============
USE_GCC5=NO
USE_DEBUG=NO
USE_FAST_MATH=YES
USE_NATIVE_CPU_OPTIMIZATIONS=NO
COMPILE_VTKLIB=YES
COMPILE_CHRONO=YES
COMPILE_WAVEGEN=YES

LIBS_DIRECTORIES=-L./
LIBS_DIRECTORIES:=$(LIBS_DIRECTORIES) -L../lib/linux_gcc

EXECNAME=DualSPHysics4.4CPU_linux64
EXECS_DIRECTORY=../../bin/linux

ifeq ($(USE_DEBUG), YES)
  CCFLAGS=-c -O0 -g -Wall -fopenmp
else
  CCFLAGS=-c -O3 -fopenmp
  ifeq ($(USE_FAST_MATH), YES)
    CCFLAGS+= -ffast-math
  endif
  ifeq ($(USE_NATIVE_CPU_OPTIMIZATIONS), YES)
    CCFLAGS+= -march=native
  endif
endif
CC=g++
CCLINKFLAGS=-fopenmp -lgomp

#Required for GCC versions >=5.0
ifeq ($(USE_GCC5), YES)
  CCFLAGS+=-D_GLIBCXX_USE_CXX11_ABI=0
  CCLINKFLAGS+=-D_GLIBCXX_USE_CXX11_ABI=0
endif

ifeq ($(COMPILE_VTKLIB), NO)
  CCFLAGS:=$(CCFLAGS) -DDISABLE_VTKLIB
endif
ifeq ($(COMPILE_CHRONO), NO)
  CCFLAGS:=$(CCFLAGS) -DDISABLE_CHRONO
endif
ifeq ($(COMPILE_WAVEGEN), NO)
  CCFLAGS:=$(CCFLAGS) -DDISABLE_WAVEGEN
endif

#=============== Files to compile ===============
OBJXML=JXml.o tinystr.o tinyxml.o tinyxmlerror.o tinyxmlparser.o
OBJSPHMOTION=JMotion.o JMotionList.o JMotionMov.o JMotionObj.o JMotionPos.o JSphMotion.o
OBCOMMON=Functions.o FunctionsGeo3d.o JAppInfo.o JBinaryData.o JDataArrays.o JException.o JLinearValue.o JLog2.o JMeanValues.o JObject.o JOutputCsv.o JRadixSort.o JRangeFilter.o JReadDatafile.o JSaveCsv2.o JTimeControl.o randomc.o
OBCOMMONDSPH=JDsphConfig.o JPartDataBi4.o JPartDataHead.o JPartFloatBi4.o JPartOutBi4Save.o JSpaceCtes.o JSpaceEParms.o JSpaceParts.o JSpaceProperties.o JSpaceVtkOut.o
OBSPH=JArraysCpu.o JCellDivCpu.o JCfgRun.o JDamping.o JGaugeItem.o JGaugeSystem.o JPartsOut.o JSaveDt.o JShifting.o JSph.o JSphAccInput.o JSphCpu.o JSphInitialize.o JSphMk.o JSphPartsInit.o JSphDtFixed.o JSphVisco.o JTimeOut.o JWaveSpectrumGpu.o main.o
OBSPHSINGLE=JCellDivCpuSingle.o JPartsLoad4.o JSphCpuSingle.o

OBWAVERZ=JMLPistonsGpu.o JRelaxZonesGpu.o
OBCHRONO=JChronoObjects.o
OBINOUT=JSphCpu_InOut.o JSphCpuSingle_InOut.o JSphBoundCorr.o JSphInOut.o JSphInOutGridData.o JSphInOutPoints.o JSimpleNeigs.o

OBJECTS=$(OBJXML) $(OBJSPHMOTION) $(OBCOMMON) $(OBCOMMONDSPH) $(OBSPH) $(OBSPHSINGLE)
OBJECTS:=$(OBJECTS) $(OBWAVERZ) $(OBCHRONO) $(OBINOUT)

#=============== DualSPHysics libs to be included ===============
JLIBS=${LIBS_DIRECTORIES}
ifeq ($(COMPILE_VTKLIB), YES)
  JLIBS:=$(JLIBS) -ljvtklib_64
endif
ifeq ($(COMPILE_CHRONO), YES)
  JLIBS:=$(JLIBS) -ldsphchrono -lChronoEngine
endif
ifeq ($(COMPILE_WAVEGEN), YES)
  JLIBS:=$(JLIBS) -ljwavegen_64
endif

#=============== CPU Code Compilation ===============
all:$(EXECS_DIRECTORY)/$(EXECNAME)
	rm -rf *.o
ifeq ($(USE_DEBUG), NO)
	@echo "  --- Compiled Release CPU version ---"	
else
	@echo "  --- Compiled Debug CPU version ---"
	mv $(EXECS_DIRECTORY)/$(EXECNAME) $(EXECNAME)_debug
endif

$(EXECS_DIRECTORY)/$(EXECNAME):  $(OBJECTS)
	$(CC) $(OBJECTS) $(CCLINKFLAGS) -o $@ $(JLIBS)

.cpp.o: 
	$(CC) $(CCFLAGS) $< 

clean:
	rm -rf *.o $(EXECNAME) $(EXECNAME)_debug
