#DualSPHysics v4.2.022 Full 28-11-2017

#=============== Cluster selection ===============
CLUSTER=EPH
### EPH -> Uses g++ compiler
### CSF -> Uses g++ compiler
### BSC -> Uses icpc compiler 
### EME -> To use icpc: module load intel/12.1

#=============== Config other flags to compile ===============
#CCMOREFLAGS= -D_CODE_FAST
#CCMOREFLAGS= -D_CODE_FASTBALANCING

#=============== Files to compile ===============
OBJXML=JXml.o tinystr.o tinyxml.o tinyxmlerror.o tinyxmlparser.o
OBJSPHMOTION=JMotion.o JMotionList.o JMotionMov.o JMotionObj.o JMotionPos.o JSphMotion.o
OBCOMMON=Functions.o FunctionsMath.o JBinaryData.o JException.o JLog2.o JMeanValues.o JObject.o JRadixSort.o JRangeFilter.o JReadDatafile.o JSaveCsv.o JTimeControl.o randomc.o
OBCOMMONDSPH=JDsphConfig.o JPartDataBi4.o JPartFloatBi4.o JPartOutBi4Save.o JSpaceCtes.o JSpaceEParms.o JSpaceParts.o JSpaceProperties.o
OBSPH=JArraysCpu.o JCellDivCpu.o JCfgRun.o JDamping.o JGauge.o JPartsOut.o JSaveDt.o JSph.o JSphAccInput.o JSphCpu.o JSphDtFixed.o JSphVisco.o JTimeOut.o main.o
OBSPHSINGLE=JCellDivCpuSingle.o JPartsLoad4.o JSphCpuSingle.o

OBJECTS=$(OBJXML) $(OBJSPHMOTION) $(OBCOMMON) $(OBCOMMONDSPH) $(OBSPH) $(OBSPHSINGLE)

#=============== DualSPHysics libs to include ===============
JLIBS=-L./ -ljformatfiles2_64 -ljwavegencpu_64

#=============== To compile CPU code ===============
### para AMD usar: CCFLAGS := $(CCFLAGS) -mtune=amdfam10
CC=g++
CCFLAGS=-c -O3 -fopenmp -ffast-math
CCLINKFLAGS=-fopenmp -lgomp
ifeq ($(CLUSTER),EPH)
  CCLINKFLAGS:=$(CCLINKFLAGS)
endif
ifneq (,$(filter $(CLUSTER),BSC EME))
  CC=icpc
  CCFLAGS=-c -O3 -openmp
  CCLINKFLAGS=-openmp
endif
CCFLAGS := $(CCFLAGS) $(CCMOREFLAGS)


all:dualsphysics4cpu 
	rm -rf *.o
	@echo "  --- Compiled CPU version for the cluster $(CLUSTER) ---"

dualsphysics4cpu:  $(OBJECTS)
	$(CC) $(CCLINKFLAGS) $(OBJECTS) -o $@ $(JLIBS)

.cpp.o: 
	$(CC) $(CCFLAGS) $< 

clean:
	rm -rf *.o dualsphysics4cpu

help:
	@echo "  make CLUSTER=[EPH,CSF,BSC,EME]"
	@echo "    EPH: Ephyslab - Universidad de Vigo"
	@echo "    CSF: University of Manchester"
	@echo "    BSC: Barcelona Supercomputing Center"
	@echo "    EME: Emerald - e-Infrastructure South"
